# generated using pymatgen
data_U(SiRh)6
_symmetry_space_group_name_H-M   Cmmm
_cell_length_a   5.41832526
_cell_length_b   46.97066838
_cell_length_c   7.71718440
_cell_angle_alpha   90.00000000
_cell_angle_beta   90.00000000
_cell_angle_gamma   90.00000000
_symmetry_Int_Tables_number   65
_chemical_formula_structural   U(SiRh)6
_chemical_formula_sum   'U10 Si60 Rh60'
_cell_volume   1964.04163421
_cell_formula_units_Z   10
loop_
 _symmetry_equiv_pos_site_id
 _symmetry_equiv_pos_as_xyz
  1  'x, y, z'
  2  '-x, -y, -z'
  3  '-x, -y, z'
  4  'x, y, -z'
  5  'x, -y, -z'
  6  '-x, y, z'
  7  '-x, y, -z'
  8  'x, -y, z'
  9  'x+1/2, y+1/2, z'
  10  '-x+1/2, -y+1/2, -z'
  11  '-x+1/2, -y+1/2, z'
  12  'x+1/2, y+1/2, -z'
  13  'x+1/2, -y+1/2, -z'
  14  '-x+1/2, y+1/2, z'
  15  '-x+1/2, y+1/2, -z'
  16  'x+1/2, -y+1/2, z'
loop_
 _atom_site_type_symbol
 _atom_site_label
 _atom_site_symmetry_multiplicity
 _atom_site_fract_x
 _atom_site_fract_y
 _atom_site_fract_z
 _atom_site_occupancy
  U  U0  4  0.00000000  0.09947064  0.50000000  1
  U  U1  4  0.00000000  0.29949029  0.00000000  1
  U  U2  2  0.00000000  0.50000000  0.50000000  1
  Si  Si3  8  0.00000000  0.10001107  0.15935192  1
  Si  Si4  8  0.00000000  0.30002688  0.34069370  1
  Si  Si5  4  0.00000000  0.03319171  0.50000000  1
  Si  Si6  4  0.00000000  0.03322773  0.00000000  1
  Si  Si7  4  0.00000000  0.16569939  0.50000000  1
  Si  Si8  4  0.00000000  0.16797444  0.00000000  1
  Si  Si9  4  0.00000000  0.23312684  0.50000000  1
  Si  Si10  4  0.00000000  0.23325370  0.00000000  1
  Si  Si11  4  0.00000000  0.36570847  0.00000000  1
  Si  Si12  4  0.00000000  0.36797700  0.50000000  1
  Si  Si13  4  0.00000000  0.43311549  0.00000000  1
  Si  Si14  4  0.00000000  0.43336333  0.50000000  1
  Si  Si15  4  0.00000000  0.50000000  0.15926959  1
  Rh  Rh16  16  0.24993928  0.54997600  0.24474922  1
  Rh  Rh17  16  0.24999839  0.14999304  0.24999482  1
  Rh  Rh18  8  0.00000000  0.20000256  0.25498255  1
  Rh  Rh19  8  0.00000000  0.40001802  0.24503999  1
  Rh  Rh20  8  0.25000000  0.25000000  0.25548796  1
  Rh  Rh21  4  0.00000000  0.00000000  0.24523797  1
