# generated using pymatgen
data_U(TaSi)6
_symmetry_space_group_name_H-M   Cmmm
_cell_length_a   5.65384317
_cell_length_b   48.91168891
_cell_length_c   8.33264118
_cell_angle_alpha   90.00000000
_cell_angle_beta   90.00000000
_cell_angle_gamma   90.00000000
_symmetry_Int_Tables_number   65
_chemical_formula_structural   U(TaSi)6
_chemical_formula_sum   'U10 Ta60 Si60'
_cell_volume   2304.30041097
_cell_formula_units_Z   10
loop_
 _symmetry_equiv_pos_site_id
 _symmetry_equiv_pos_as_xyz
  1  'x, y, z'
  2  '-x, -y, -z'
  3  '-x, -y, z'
  4  'x, y, -z'
  5  'x, -y, -z'
  6  '-x, y, z'
  7  '-x, y, -z'
  8  'x, -y, z'
  9  'x+1/2, y+1/2, z'
  10  '-x+1/2, -y+1/2, -z'
  11  '-x+1/2, -y+1/2, z'
  12  'x+1/2, y+1/2, -z'
  13  'x+1/2, -y+1/2, -z'
  14  '-x+1/2, y+1/2, z'
  15  '-x+1/2, y+1/2, -z'
  16  'x+1/2, -y+1/2, z'
loop_
 _atom_site_type_symbol
 _atom_site_label
 _atom_site_symmetry_multiplicity
 _atom_site_fract_x
 _atom_site_fract_y
 _atom_site_fract_z
 _atom_site_occupancy
  U  U0  4  0.00000000  0.20041122  0.50000000  1
  U  U1  4  0.00000000  0.40037913  0.00000000  1
  U  U2  2  0.00000000  0.00000000  0.00000000  1
  Ta  Ta3  16  0.24994974  0.45002778  0.25198607  1
  Ta  Ta4  16  0.24999863  0.35000491  0.25002423  1
  Ta  Ta5  8  0.00000000  0.10000794  0.25678871  1
  Ta  Ta6  8  0.00000000  0.30002214  0.24301086  1
  Ta  Ta7  8  0.25000000  0.25000000  0.24859571  1
  Ta  Ta8  4  0.00000000  0.50000000  0.25233017  1
  Si  Si9  8  0.00000000  0.20016809  0.15615733  1
  Si  Si10  8  0.00000000  0.40017478  0.34385064  1
  Si  Si11  4  0.00000000  0.00000000  0.34353319  1
  Si  Si12  4  0.00000000  0.06629816  0.50000000  1
  Si  Si13  4  0.00000000  0.06738739  0.00000000  1
  Si  Si14  4  0.00000000  0.13071071  0.00000000  1
  Si  Si15  4  0.00000000  0.13529840  0.50000000  1
  Si  Si16  4  0.00000000  0.26621234  0.00000000  1
  Si  Si17  4  0.00000000  0.26757220  0.50000000  1
  Si  Si18  4  0.00000000  0.33067894  0.50000000  1
  Si  Si19  4  0.00000000  0.33532109  0.00000000  1
  Si  Si20  4  0.00000000  0.46668982  0.50000000  1
  Si  Si21  4  0.00000000  0.46689457  0.00000000  1
