# generated using pymatgen
data_U(CrGe)6
_symmetry_space_group_name_H-M   Cmcm
_cell_length_a   8.28087412
_cell_length_b   70.69467954
_cell_length_c   5.10668031
_cell_angle_alpha   90.00000000
_cell_angle_beta   90.00000000
_cell_angle_gamma   90.00000000
_symmetry_Int_Tables_number   63
_chemical_formula_structural   U(CrGe)6
_chemical_formula_sum   'U16 Cr96 Ge96'
_cell_volume   2989.52083209
_cell_formula_units_Z   16
loop_
 _symmetry_equiv_pos_site_id
 _symmetry_equiv_pos_as_xyz
  1  'x, y, z'
  2  '-x, -y, -z'
  3  '-x, -y, z+1/2'
  4  'x, y, -z+1/2'
  5  'x, -y, -z'
  6  '-x, y, z'
  7  '-x, y, -z+1/2'
  8  'x, -y, z+1/2'
  9  'x+1/2, y+1/2, z'
  10  '-x+1/2, -y+1/2, -z'
  11  '-x+1/2, -y+1/2, z+1/2'
  12  'x+1/2, y+1/2, -z+1/2'
  13  'x+1/2, -y+1/2, -z'
  14  '-x+1/2, y+1/2, z'
  15  '-x+1/2, y+1/2, -z+1/2'
  16  'x+1/2, -y+1/2, z+1/2'
loop_
 _atom_site_type_symbol
 _atom_site_label
 _atom_site_symmetry_multiplicity
 _atom_site_fract_x
 _atom_site_fract_y
 _atom_site_fract_z
 _atom_site_occupancy
  U  U0  4  0.00000000  0.03186312  0.75000000  1
  U  U1  4  0.00000000  0.28077010  0.75000000  1
  U  U2  4  0.00000000  0.34375782  0.25000000  1
  U  U3  4  0.00000000  0.40688485  0.75000000  1
  Cr  Cr4  16  0.24861969  0.81249190  0.00009005  1
  Cr  Cr5  16  0.24863649  0.93759113  0.00221356  1
  Cr  Cr6  16  0.24867400  0.12501757  0.50014711  1
  Cr  Cr7  8  0.24532235  0.96862776  0.75000000  1
  Cr  Cr8  8  0.24802718  0.40621458  0.25000000  1
  Cr  Cr9  8  0.24889466  0.84374962  0.75000000  1
  Cr  Cr10  8  0.24903009  0.00000000  0.00000000  1
  Cr  Cr11  8  0.24928008  0.28122177  0.25000000  1
  Cr  Cr12  8  0.25000000  0.25000000  0.00000000  1
  Ge  Ge13  8  0.15526982  0.15624018  0.75000000  1
  Ge  Ge14  8  0.15578757  0.21861754  0.25000000  1
  Ge  Ge15  8  0.15592727  0.90603658  0.75000000  1
  Ge  Ge16  8  0.15654036  0.46901524  0.25000000  1
  Ge  Ge17  4  0.00000000  0.01032740  0.25000000  1
  Ge  Ge18  4  0.00000000  0.05304777  0.25000000  1
  Ge  Ge19  4  0.00000000  0.07385107  0.75000000  1
  Ge  Ge20  4  0.00000000  0.11458124  0.75000000  1
  Ge  Ge21  4  0.00000000  0.13543559  0.25000000  1
  Ge  Ge22  4  0.00000000  0.17706945  0.25000000  1
  Ge  Ge23  4  0.00000000  0.19791030  0.75000000  1
  Ge  Ge24  4  0.00000000  0.23905623  0.75000000  1
  Ge  Ge25  4  0.00000000  0.25972656  0.25000000  1
  Ge  Ge26  4  0.00000000  0.30200620  0.25000000  1
  Ge  Ge27  4  0.00000000  0.32278927  0.75000000  1
  Ge  Ge28  4  0.00000000  0.36473913  0.75000000  1
  Ge  Ge29  4  0.00000000  0.38549763  0.25000000  1
  Ge  Ge30  4  0.00000000  0.42805249  0.25000000  1
  Ge  Ge31  4  0.00000000  0.44886602  0.75000000  1
  Ge  Ge32  4  0.00000000  0.48960336  0.75000000  1
