# generated using pymatgen
data_U(SiNi)6
_symmetry_space_group_name_H-M   Cmcm
_cell_length_a   7.75162475
_cell_length_b   68.31889671
_cell_length_c   4.91487694
_cell_angle_alpha   90.00000000
_cell_angle_beta   90.00000000
_cell_angle_gamma   90.00000000
_symmetry_Int_Tables_number   63
_chemical_formula_structural   U(SiNi)6
_chemical_formula_sum   'U16 Si96 Ni96'
_cell_volume   2602.83257692
_cell_formula_units_Z   16
loop_
 _symmetry_equiv_pos_site_id
 _symmetry_equiv_pos_as_xyz
  1  'x, y, z'
  2  '-x, -y, -z'
  3  '-x, -y, z+1/2'
  4  'x, y, -z+1/2'
  5  'x, -y, -z'
  6  '-x, y, z'
  7  '-x, y, -z+1/2'
  8  'x, -y, z+1/2'
  9  'x+1/2, y+1/2, z'
  10  '-x+1/2, -y+1/2, -z'
  11  '-x+1/2, -y+1/2, z+1/2'
  12  'x+1/2, y+1/2, -z+1/2'
  13  'x+1/2, -y+1/2, -z'
  14  '-x+1/2, y+1/2, z'
  15  '-x+1/2, y+1/2, -z+1/2'
  16  'x+1/2, -y+1/2, z+1/2'
loop_
 _atom_site_type_symbol
 _atom_site_label
 _atom_site_symmetry_multiplicity
 _atom_site_fract_x
 _atom_site_fract_y
 _atom_site_fract_z
 _atom_site_occupancy
  U  U0  4  0.00000000  0.03143386  0.25000000  1
  U  U1  4  0.00000000  0.28141889  0.25000000  1
  U  U2  4  0.00000000  0.34375233  0.75000000  1
  U  U3  4  0.00000000  0.40625000  0.25000000  1
  Si  Si4  8  0.15075854  0.46854957  0.75000000  1
  Si  Si5  8  0.15107077  0.15624369  0.25000000  1
  Si  Si6  8  0.15142210  0.21888776  0.75000000  1
  Si  Si7  8  0.15166166  0.09380799  0.75000000  1
  Si  Si8  4  0.00000000  0.01020614  0.75000000  1
  Si  Si9  4  0.00000000  0.05424917  0.75000000  1
  Si  Si10  4  0.00000000  0.07466424  0.25000000  1
  Si  Si11  4  0.00000000  0.11473130  0.25000000  1
  Si  Si12  4  0.00000000  0.13551584  0.75000000  1
  Si  Si13  4  0.00000000  0.17700506  0.75000000  1
  Si  Si14  4  0.00000000  0.19778713  0.25000000  1
  Si  Si15  4  0.00000000  0.23830404  0.25000000  1
  Si  Si16  4  0.00000000  0.25873141  0.75000000  1
  Si  Si17  4  0.00000000  0.30226689  0.75000000  1
  Si  Si18  4  0.00000000  0.32293493  0.25000000  1
  Si  Si19  4  0.00000000  0.36464130  0.25000000  1
  Si  Si20  4  0.00000000  0.38525195  0.75000000  1
  Si  Si21  4  0.00000000  0.42906028  0.75000000  1
  Si  Si22  4  0.00000000  0.44922345  0.25000000  1
  Si  Si23  4  0.00000000  0.48945492  0.25000000  1
  Ni  Ni24  16  0.23990104  0.18752607  0.00001628  1
  Ni  Ni25  16  0.23993984  0.12498247  0.00009538  1
  Ni  Ni26  16  0.24745173  0.06248346  0.50035384  1
  Ni  Ni27  8  0.24015917  0.15624444  0.75000000  1
  Ni  Ni28  8  0.24194787  0.21881840  0.25000000  1
  Ni  Ni29  8  0.24368485  0.09369786  0.25000000  1
  Ni  Ni30  8  0.24388833  0.50000000  0.00000000  1
  Ni  Ni31  8  0.24863993  0.46875159  0.25000000  1
  Ni  Ni32  8  0.25000000  0.25000000  0.00000000  1
