# generated using pymatgen
data_U(ZnGe)6
_symmetry_space_group_name_H-M   Cmmm
_cell_length_a   5.19206695
_cell_length_b   50.70187997
_cell_length_c   8.47287093
_cell_angle_alpha   90.00000000
_cell_angle_beta   90.00000000
_cell_angle_gamma   90.00000000
_symmetry_Int_Tables_number   65
_chemical_formula_structural   U(ZnGe)6
_chemical_formula_sum   'U10 Zn60 Ge60'
_cell_volume   2230.46255835
_cell_formula_units_Z   10
loop_
 _symmetry_equiv_pos_site_id
 _symmetry_equiv_pos_as_xyz
  1  'x, y, z'
  2  '-x, -y, -z'
  3  '-x, -y, z'
  4  'x, y, -z'
  5  'x, -y, -z'
  6  '-x, y, z'
  7  '-x, y, -z'
  8  'x, -y, z'
  9  'x+1/2, y+1/2, z'
  10  '-x+1/2, -y+1/2, -z'
  11  '-x+1/2, -y+1/2, z'
  12  'x+1/2, y+1/2, -z'
  13  'x+1/2, -y+1/2, -z'
  14  '-x+1/2, y+1/2, z'
  15  '-x+1/2, y+1/2, -z'
  16  'x+1/2, -y+1/2, z'
loop_
 _atom_site_type_symbol
 _atom_site_label
 _atom_site_symmetry_multiplicity
 _atom_site_fract_x
 _atom_site_fract_y
 _atom_site_fract_z
 _atom_site_occupancy
  U  U0  4  0.00000000  0.20101526  0.50000000  1
  U  U1  4  0.00000000  0.40112760  0.00000000  1
  U  U2  2  0.00000000  0.00000000  0.00000000  1
  Zn  Zn3  16  0.24956614  0.54997349  0.23983499  1
  Zn  Zn4  16  0.24982650  0.15005449  0.24988879  1
  Zn  Zn5  8  0.00000000  0.09997647  0.24342016  1
  Zn  Zn6  8  0.00000000  0.30016975  0.25641854  1
  Zn  Zn7  8  0.25000000  0.25000000  0.26168950  1
  Zn  Zn8  4  0.00000000  0.50000000  0.24089448  1
  Ge  Ge9  8  0.00000000  0.20174065  0.14260927  1
  Ge  Ge10  8  0.00000000  0.40201845  0.35715580  1
  Ge  Ge11  4  0.00000000  0.00000000  0.35704800  1
  Ge  Ge12  4  0.00000000  0.06609119  0.50000000  1
  Ge  Ge13  4  0.00000000  0.06642839  0.00000000  1
  Ge  Ge14  4  0.00000000  0.12913192  0.00000000  1
  Ge  Ge15  4  0.00000000  0.14174775  0.50000000  1
  Ge  Ge16  4  0.00000000  0.26457610  0.00000000  1
  Ge  Ge17  4  0.00000000  0.26702810  0.50000000  1
  Ge  Ge18  4  0.00000000  0.32922926  0.50000000  1
  Ge  Ge19  4  0.00000000  0.34163727  0.00000000  1
  Ge  Ge20  4  0.00000000  0.46424138  0.50000000  1
  Ge  Ge21  4  0.00000000  0.46776258  0.00000000  1
