# generated using pymatgen
data_U(CrSn)6
_symmetry_space_group_name_H-M   Immm
_cell_length_a   5.34018444
_cell_length_b   9.31262869
_cell_length_c   27.73064514
_cell_angle_alpha   90.00000000
_cell_angle_beta   90.00000000
_cell_angle_gamma   90.00000000
_symmetry_Int_Tables_number   71
_chemical_formula_structural   U(CrSn)6
_chemical_formula_sum   'U6 Cr36 Sn36'
_cell_volume   1379.07700556
_cell_formula_units_Z   6
loop_
 _symmetry_equiv_pos_site_id
 _symmetry_equiv_pos_as_xyz
  1  'x, y, z'
  2  '-x, -y, -z'
  3  '-x, -y, z'
  4  'x, y, -z'
  5  'x, -y, -z'
  6  '-x, y, z'
  7  '-x, y, -z'
  8  'x, -y, z'
  9  'x+1/2, y+1/2, z+1/2'
  10  '-x+1/2, -y+1/2, -z+1/2'
  11  '-x+1/2, -y+1/2, z+1/2'
  12  'x+1/2, y+1/2, -z+1/2'
  13  'x+1/2, -y+1/2, -z+1/2'
  14  '-x+1/2, y+1/2, z+1/2'
  15  '-x+1/2, y+1/2, -z+1/2'
  16  'x+1/2, -y+1/2, z+1/2'
loop_
 _atom_site_type_symbol
 _atom_site_label
 _atom_site_symmetry_multiplicity
 _atom_site_fract_x
 _atom_site_fract_y
 _atom_site_fract_z
 _atom_site_occupancy
  U  U0  4  0.00000000  0.00000000  0.16749674  1
  U  U1  2  0.00000000  0.50000000  0.50000000  1
  Cr  Cr2  16  0.24999479  0.24987460  0.41679144  1
  Cr  Cr3  8  0.00000000  0.25123620  0.33345152  1
  Cr  Cr4  8  0.25000000  0.25000000  0.25000000  1
  Cr  Cr5  4  0.00000000  0.25034750  0.00000000  1
  Sn  Sn6  8  0.00000000  0.33991005  0.16653522  1
  Sn  Sn7  4  0.00000000  0.00000000  0.05571525  1
  Sn  Sn8  4  0.00000000  0.00000000  0.28062502  1
  Sn  Sn9  4  0.00000000  0.00000000  0.38996104  1
  Sn  Sn10  4  0.00000000  0.15967264  0.50000000  1
  Sn  Sn11  4  0.00000000  0.50000000  0.05565262  1
  Sn  Sn12  4  0.00000000  0.50000000  0.27554657  1
  Sn  Sn13  4  0.00000000  0.50000000  0.38848015  1
