# generated using pymatgen
data_U(ZnPb)6
_symmetry_space_group_name_H-M   Cmcm
_cell_length_a   10.72139235
_cell_length_b   39.52349958
_cell_length_c   5.68256033
_cell_angle_alpha   90.00000000
_cell_angle_beta   90.00000000
_cell_angle_gamma   90.00000000
_symmetry_Int_Tables_number   63
_chemical_formula_structural   U(ZnPb)6
_chemical_formula_sum   'U8 Zn48 Pb48'
_cell_volume   2407.96758440
_cell_formula_units_Z   8
loop_
 _symmetry_equiv_pos_site_id
 _symmetry_equiv_pos_as_xyz
  1  'x, y, z'
  2  '-x, -y, -z'
  3  '-x, -y, z+1/2'
  4  'x, y, -z+1/2'
  5  'x, -y, -z'
  6  '-x, y, z'
  7  '-x, y, -z+1/2'
  8  'x, -y, z+1/2'
  9  'x+1/2, y+1/2, z'
  10  '-x+1/2, -y+1/2, -z'
  11  '-x+1/2, -y+1/2, z+1/2'
  12  'x+1/2, y+1/2, -z+1/2'
  13  'x+1/2, -y+1/2, -z'
  14  '-x+1/2, y+1/2, z'
  15  '-x+1/2, y+1/2, -z+1/2'
  16  'x+1/2, -y+1/2, z+1/2'
loop_
 _atom_site_type_symbol
 _atom_site_label
 _atom_site_symmetry_multiplicity
 _atom_site_fract_x
 _atom_site_fract_y
 _atom_site_fract_z
 _atom_site_occupancy
  U  U0  4  0.00000000  0.06468832  0.75000000  1
  U  U1  4  0.00000000  0.19417628  0.25000000  1
  Zn  Zn2  16  0.21378025  0.12105029  0.53628864  1
  Zn  Zn3  8  0.20871086  0.19445292  0.75000000  1
  Zn  Zn4  8  0.20974438  0.06192162  0.25000000  1
  Zn  Zn5  8  0.21366396  0.00000000  0.00000000  1
  Zn  Zn6  8  0.25000000  0.25000000  0.00000000  1
  Pb  Pb7  8  0.18306935  0.43892511  0.25000000  1
  Pb  Pb8  8  0.19356604  0.31660140  0.75000000  1
  Pb  Pb9  4  0.00000000  0.02067014  0.25000000  1
  Pb  Pb10  4  0.00000000  0.10862404  0.25000000  1
  Pb  Pb11  4  0.00000000  0.15100953  0.75000000  1
  Pb  Pb12  4  0.00000000  0.23730752  0.75000000  1
  Pb  Pb13  4  0.00000000  0.27643335  0.25000000  1
  Pb  Pb14  4  0.00000000  0.35758622  0.25000000  1
  Pb  Pb15  4  0.00000000  0.39648557  0.75000000  1
  Pb  Pb16  4  0.00000000  0.47881787  0.75000000  1
