# generated using pymatgen
data_U(SiAg)6
_symmetry_space_group_name_H-M   Cmmm
_cell_length_a   5.62732103
_cell_length_b   49.71833702
_cell_length_c   8.28017402
_cell_angle_alpha   90.00000000
_cell_angle_beta   90.00000000
_cell_angle_gamma   90.00000000
_symmetry_Int_Tables_number   65
_chemical_formula_structural   U(SiAg)6
_chemical_formula_sum   'U10 Si60 Ag60'
_cell_volume   2316.63572752
_cell_formula_units_Z   10
loop_
 _symmetry_equiv_pos_site_id
 _symmetry_equiv_pos_as_xyz
  1  'x, y, z'
  2  '-x, -y, -z'
  3  '-x, -y, z'
  4  'x, y, -z'
  5  'x, -y, -z'
  6  '-x, y, z'
  7  '-x, y, -z'
  8  'x, -y, z'
  9  'x+1/2, y+1/2, z'
  10  '-x+1/2, -y+1/2, -z'
  11  '-x+1/2, -y+1/2, z'
  12  'x+1/2, y+1/2, -z'
  13  'x+1/2, -y+1/2, -z'
  14  '-x+1/2, y+1/2, z'
  15  '-x+1/2, y+1/2, -z'
  16  'x+1/2, -y+1/2, z'
loop_
 _atom_site_type_symbol
 _atom_site_label
 _atom_site_symmetry_multiplicity
 _atom_site_fract_x
 _atom_site_fract_y
 _atom_site_fract_z
 _atom_site_occupancy
  U  U0  4  0.00000000  0.09912454  0.50000000  1
  U  U1  4  0.00000000  0.29917981  0.00000000  1
  U  U2  2  0.00000000  0.50000000  0.50000000  1
  Si  Si3  8  0.00000000  0.09721375  0.13806632  1
  Si  Si4  8  0.00000000  0.29726784  0.36203767  1
  Si  Si5  4  0.00000000  0.03290864  0.50000000  1
  Si  Si6  4  0.00000000  0.03419898  0.00000000  1
  Si  Si7  4  0.00000000  0.16027416  0.50000000  1
  Si  Si8  4  0.00000000  0.17104782  0.00000000  1
  Si  Si9  4  0.00000000  0.23190200  0.00000000  1
  Si  Si10  4  0.00000000  0.23473300  0.50000000  1
  Si  Si11  4  0.00000000  0.36057883  0.00000000  1
  Si  Si12  4  0.00000000  0.37074399  0.50000000  1
  Si  Si13  4  0.00000000  0.43232751  0.50000000  1
  Si  Si14  4  0.00000000  0.43339523  0.00000000  1
  Si  Si15  4  0.00000000  0.50000000  0.13667216  1
  Ag  Ag16  16  0.24913602  0.44983722  0.24839468  1
  Ag  Ag17  16  0.24999863  0.65005598  0.25005175  1
  Ag  Ag18  8  0.00000000  0.19967802  0.26250813  1
  Ag  Ag19  8  0.00000000  0.39953965  0.23952489  1
  Ag  Ag20  8  0.25000000  0.25000000  0.25016747  1
  Ag  Ag21  4  0.00000000  0.00000000  0.24429410  1
