# generated using pymatgen
data_U(VSn)6
_symmetry_space_group_name_H-M   Cmcm
_cell_length_a   9.43656113
_cell_length_b   37.62442897
_cell_length_c   5.42432845
_cell_angle_alpha   90.00000000
_cell_angle_beta   90.00000000
_cell_angle_gamma   90.00000000
_symmetry_Int_Tables_number   63
_chemical_formula_structural   U(VSn)6
_chemical_formula_sum   'U8 V48 Sn48'
_cell_volume   1925.88191000
_cell_formula_units_Z   8
loop_
 _symmetry_equiv_pos_site_id
 _symmetry_equiv_pos_as_xyz
  1  'x, y, z'
  2  '-x, -y, -z'
  3  '-x, -y, z+1/2'
  4  'x, y, -z+1/2'
  5  'x, -y, -z'
  6  '-x, y, z'
  7  '-x, y, -z+1/2'
  8  'x, -y, z+1/2'
  9  'x+1/2, y+1/2, z'
  10  '-x+1/2, -y+1/2, -z'
  11  '-x+1/2, -y+1/2, z+1/2'
  12  'x+1/2, y+1/2, -z+1/2'
  13  'x+1/2, -y+1/2, -z'
  14  '-x+1/2, y+1/2, z'
  15  '-x+1/2, y+1/2, -z+1/2'
  16  'x+1/2, -y+1/2, z+1/2'
loop_
 _atom_site_type_symbol
 _atom_site_label
 _atom_site_symmetry_multiplicity
 _atom_site_fract_x
 _atom_site_fract_y
 _atom_site_fract_z
 _atom_site_occupancy
  U  U0  4  0.00000000  0.06379343  0.25000000  1
  U  U1  4  0.00000000  0.18998565  0.75000000  1
  V  V2  16  0.24667631  0.12453042  0.00644407  1
  V  V3  8  0.24419642  0.18827018  0.25000000  1
  V  V4  8  0.24480289  0.00000000  0.00000000  1
  V  V5  8  0.24492637  0.06254133  0.75000000  1
  V  V6  8  0.25000000  0.25000000  0.00000000  1
  Sn  Sn7  8  0.16553359  0.31326375  0.25000000  1
  Sn  Sn8  8  0.16588437  0.43856294  0.75000000  1
  Sn  Sn9  4  0.00000000  0.02098626  0.75000000  1
  Sn  Sn10  4  0.00000000  0.10561249  0.75000000  1
  Sn  Sn11  4  0.00000000  0.14724136  0.25000000  1
  Sn  Sn12  4  0.00000000  0.23125889  0.25000000  1
  Sn  Sn13  4  0.00000000  0.27386458  0.75000000  1
  Sn  Sn14  4  0.00000000  0.35479170  0.75000000  1
  Sn  Sn15  4  0.00000000  0.39676763  0.25000000  1
  Sn  Sn16  4  0.00000000  0.47856490  0.25000000  1
