# generated using pymatgen
data_U(SnW)6
_symmetry_space_group_name_H-M   Cmcm
_cell_length_a   9.65846894
_cell_length_b   77.60145004
_cell_length_c   5.59317131
_cell_angle_alpha   90.00000000
_cell_angle_beta   90.00000000
_cell_angle_gamma   90.00000000
_symmetry_Int_Tables_number   63
_chemical_formula_structural   U(SnW)6
_chemical_formula_sum   'U16 Sn96 W96'
_cell_volume   4192.14451280
_cell_formula_units_Z   16
loop_
 _symmetry_equiv_pos_site_id
 _symmetry_equiv_pos_as_xyz
  1  'x, y, z'
  2  '-x, -y, -z'
  3  '-x, -y, z+1/2'
  4  'x, y, -z+1/2'
  5  'x, -y, -z'
  6  '-x, y, z'
  7  '-x, y, -z+1/2'
  8  'x, -y, z+1/2'
  9  'x+1/2, y+1/2, z'
  10  '-x+1/2, -y+1/2, -z'
  11  '-x+1/2, -y+1/2, z+1/2'
  12  'x+1/2, y+1/2, -z+1/2'
  13  'x+1/2, -y+1/2, -z'
  14  '-x+1/2, y+1/2, z'
  15  '-x+1/2, y+1/2, -z+1/2'
  16  'x+1/2, -y+1/2, z+1/2'
loop_
 _atom_site_type_symbol
 _atom_site_label
 _atom_site_symmetry_multiplicity
 _atom_site_fract_x
 _atom_site_fract_y
 _atom_site_fract_z
 _atom_site_occupancy
  U  U0  4  0.00000000  0.03132683  0.25000000  1
  U  U1  4  0.00000000  0.28145884  0.25000000  1
  U  U2  4  0.00000000  0.34375519  0.75000000  1
  U  U3  4  0.00000000  0.40621920  0.25000000  1
  Sn  Sn4  8  0.17711078  0.21884514  0.75000000  1
  Sn  Sn5  8  0.17749935  0.09368604  0.75000000  1
  Sn  Sn6  8  0.17764582  0.15625477  0.25000000  1
  Sn  Sn7  8  0.17981825  0.46880781  0.75000000  1
  Sn  Sn8  4  0.00000000  0.01042180  0.75000000  1
  Sn  Sn9  4  0.00000000  0.05171269  0.75000000  1
  Sn  Sn10  4  0.00000000  0.07251508  0.25000000  1
  Sn  Sn11  4  0.00000000  0.11453941  0.25000000  1
  Sn  Sn12  4  0.00000000  0.13539578  0.75000000  1
  Sn  Sn13  4  0.00000000  0.17712649  0.75000000  1
  Sn  Sn14  4  0.00000000  0.19792318  0.25000000  1
  Sn  Sn15  4  0.00000000  0.24034040  0.25000000  1
  Sn  Sn16  4  0.00000000  0.26113147  0.75000000  1
  Sn  Sn17  4  0.00000000  0.30211761  0.75000000  1
  Sn  Sn18  4  0.00000000  0.32298102  0.25000000  1
  Sn  Sn19  4  0.00000000  0.36456514  0.25000000  1
  Sn  Sn20  4  0.00000000  0.38535817  0.75000000  1
  Sn  Sn21  4  0.00000000  0.42654244  0.75000000  1
  Sn  Sn22  4  0.00000000  0.44734001  0.25000000  1
  Sn  Sn23  4  0.00000000  0.48957273  0.25000000  1
  W  W24  16  0.24924706  0.06239216  0.00126905  1
  W  W25  16  0.24990131  0.87502030  0.00026958  1
  W  W26  16  0.24995496  0.31247811  0.00040623  1
  W  W27  8  0.24795093  0.96877440  0.25000000  1
  W  W28  8  0.24848098  0.00000000  0.00000000  1
  W  W29  8  0.24928291  0.40615531  0.75000000  1
  W  W30  8  0.24941160  0.21869389  0.25000000  1
  W  W31  8  0.24987213  0.15624264  0.75000000  1
  W  W32  8  0.25000000  0.25000000  0.00000000  1
