# generated using pymatgen
data_U(TiSi)6
_symmetry_space_group_name_H-M   Cmcm
_cell_length_a   8.63048689
_cell_length_b   75.10368071
_cell_length_c   5.41875254
_cell_angle_alpha   90.00000000
_cell_angle_beta   90.00000000
_cell_angle_gamma   90.00000000
_symmetry_Int_Tables_number   63
_chemical_formula_structural   U(TiSi)6
_chemical_formula_sum   'U16 Ti96 Si96'
_cell_volume   3512.33423508
_cell_formula_units_Z   16
loop_
 _symmetry_equiv_pos_site_id
 _symmetry_equiv_pos_as_xyz
  1  'x, y, z'
  2  '-x, -y, -z'
  3  '-x, -y, z+1/2'
  4  'x, y, -z+1/2'
  5  'x, -y, -z'
  6  '-x, y, z'
  7  '-x, y, -z+1/2'
  8  'x, -y, z+1/2'
  9  'x+1/2, y+1/2, z'
  10  '-x+1/2, -y+1/2, -z'
  11  '-x+1/2, -y+1/2, z+1/2'
  12  'x+1/2, y+1/2, -z+1/2'
  13  'x+1/2, -y+1/2, -z'
  14  '-x+1/2, y+1/2, z'
  15  '-x+1/2, y+1/2, -z+1/2'
  16  'x+1/2, -y+1/2, z+1/2'
loop_
 _atom_site_type_symbol
 _atom_site_label
 _atom_site_symmetry_multiplicity
 _atom_site_fract_x
 _atom_site_fract_y
 _atom_site_fract_z
 _atom_site_occupancy
  U  U0  4  0.00000000  0.09388060  0.75000000  1
  U  U1  4  0.00000000  0.15624657  0.25000000  1
  U  U2  4  0.00000000  0.21838406  0.75000000  1
  U  U3  4  0.00000000  0.46891205  0.75000000  1
  Ti  Ti4  16  0.24354414  0.68749484  0.50021802  1
  Ti  Ti5  16  0.24357406  0.37498103  0.00013688  1
  Ti  Ti6  16  0.24576791  0.43748934  0.00025965  1
  Ti  Ti7  8  0.23849735  0.71885013  0.25000000  1
  Ti  Ti8  8  0.24112053  0.59377441  0.25000000  1
  Ti  Ti9  8  0.24351267  0.34375301  0.25000000  1
  Ti  Ti10  8  0.24858169  0.03121752  0.75000000  1
  Ti  Ti11  8  0.24940444  0.50000000  0.00000000  1
  Ti  Ti12  8  0.25000000  0.25000000  0.00000000  1
  Si  Si13  8  0.16973355  0.34375202  0.75000000  1
  Si  Si14  8  0.16973394  0.40617980  0.25000000  1
  Si  Si15  8  0.17022118  0.28119700  0.25000000  1
  Si  Si16  8  0.17356367  0.96876497  0.75000000  1
  Si  Si17  4  0.00000000  0.01023434  0.75000000  1
  Si  Si18  4  0.00000000  0.05338316  0.75000000  1
  Si  Si19  4  0.00000000  0.07427807  0.25000000  1
  Si  Si20  4  0.00000000  0.11427001  0.25000000  1
  Si  Si21  4  0.00000000  0.13539122  0.75000000  1
  Si  Si22  4  0.00000000  0.17707604  0.75000000  1
  Si  Si23  4  0.00000000  0.19829975  0.25000000  1
  Si  Si24  4  0.00000000  0.23775260  0.25000000  1
  Si  Si25  4  0.00000000  0.25870514  0.75000000  1
  Si  Si26  4  0.00000000  0.30233354  0.75000000  1
  Si  Si27  4  0.00000000  0.32285979  0.25000000  1
  Si  Si28  4  0.00000000  0.36463717  0.25000000  1
  Si  Si29  4  0.00000000  0.38524832  0.75000000  1
  Si  Si30  4  0.00000000  0.42811581  0.75000000  1
  Si  Si31  4  0.00000000  0.44908196  0.25000000  1
  Si  Si32  4  0.00000000  0.48934638  0.25000000  1
