# generated using pymatgen
data_U(VGe)6
_symmetry_space_group_name_H-M   Cmcm
_cell_length_a   8.42928127
_cell_length_b   18.20279963
_cell_length_c   5.25191052
_cell_angle_alpha   90.00000000
_cell_angle_beta   90.00000000
_cell_angle_gamma   90.00000000
_symmetry_Int_Tables_number   63
_chemical_formula_structural   U(VGe)6
_chemical_formula_sum   'U4 V24 Ge24'
_cell_volume   805.83486304
_cell_formula_units_Z   4
loop_
 _symmetry_equiv_pos_site_id
 _symmetry_equiv_pos_as_xyz
  1  'x, y, z'
  2  '-x, -y, -z'
  3  '-x, -y, z+1/2'
  4  'x, y, -z+1/2'
  5  'x, -y, -z'
  6  '-x, y, z'
  7  '-x, y, -z+1/2'
  8  'x, -y, z+1/2'
  9  'x+1/2, y+1/2, z'
  10  '-x+1/2, -y+1/2, -z'
  11  '-x+1/2, -y+1/2, z+1/2'
  12  'x+1/2, y+1/2, -z+1/2'
  13  'x+1/2, -y+1/2, -z'
  14  '-x+1/2, y+1/2, z'
  15  '-x+1/2, y+1/2, -z+1/2'
  16  'x+1/2, -y+1/2, z+1/2'
loop_
 _atom_site_type_symbol
 _atom_site_label
 _atom_site_symmetry_multiplicity
 _atom_site_fract_x
 _atom_site_fract_y
 _atom_site_fract_z
 _atom_site_occupancy
  U  U0  4  0.00000000  0.12625781  0.75000000  1
  V  V1  8  0.24824146  0.12502627  0.25000000  1
  V  V2  8  0.24968445  0.00000000  0.00000000  1
  V  V3  8  0.25000000  0.25000000  0.00000000  1
  Ge  Ge4  8  0.15734704  0.37589381  0.25000000  1
  Ge  Ge5  4  0.00000000  0.04178769  0.25000000  1
  Ge  Ge6  4  0.00000000  0.20939740  0.25000000  1
  Ge  Ge7  4  0.00000000  0.29290482  0.75000000  1
  Ge  Ge8  4  0.00000000  0.45837458  0.75000000  1
