# generated using pymatgen
data_U(TaSn)6
_symmetry_space_group_name_H-M   Cmcm
_cell_length_a   9.74789484
_cell_length_b   80.31480486
_cell_length_c   5.79255062
_cell_angle_alpha   90.00000000
_cell_angle_beta   90.00000000
_cell_angle_gamma   90.00000000
_symmetry_Int_Tables_number   63
_chemical_formula_structural   U(TaSn)6
_chemical_formula_sum   'U16 Ta96 Sn96'
_cell_volume   4534.98945177
_cell_formula_units_Z   16
loop_
 _symmetry_equiv_pos_site_id
 _symmetry_equiv_pos_as_xyz
  1  'x, y, z'
  2  '-x, -y, -z'
  3  '-x, -y, z+1/2'
  4  'x, y, -z+1/2'
  5  'x, -y, -z'
  6  '-x, y, z'
  7  '-x, y, -z+1/2'
  8  'x, -y, z+1/2'
  9  'x+1/2, y+1/2, z'
  10  '-x+1/2, -y+1/2, -z'
  11  '-x+1/2, -y+1/2, z+1/2'
  12  'x+1/2, y+1/2, -z+1/2'
  13  'x+1/2, -y+1/2, -z'
  14  '-x+1/2, y+1/2, z'
  15  '-x+1/2, y+1/2, -z+1/2'
  16  'x+1/2, -y+1/2, z+1/2'
loop_
 _atom_site_type_symbol
 _atom_site_label
 _atom_site_symmetry_multiplicity
 _atom_site_fract_x
 _atom_site_fract_y
 _atom_site_fract_z
 _atom_site_occupancy
  U  U0  4  0.00000000  0.09347156  0.25000000  1
  U  U1  4  0.00000000  0.15624193  0.75000000  1
  U  U2  4  0.00000000  0.21889417  0.25000000  1
  U  U3  4  0.00000000  0.46843809  0.25000000  1
  Ta  Ta4  16  0.24908691  0.43747312  0.00010667  1
  Ta  Ta5  16  0.24984345  0.37499856  0.50000377  1
  Ta  Ta6  16  0.24995698  0.31248246  0.50010033  1
  Ta  Ta7  8  0.24753892  0.46871239  0.75000000  1
  Ta  Ta8  8  0.24829044  0.50000000  0.00000000  1
  Ta  Ta9  8  0.24876942  0.28125858  0.25000000  1
  Ta  Ta10  8  0.24957057  0.09376395  0.75000000  1
  Ta  Ta11  8  0.24990113  0.34374616  0.75000000  1
  Ta  Ta12  8  0.25000000  0.25000000  0.00000000  1
  Sn  Sn13  8  0.17256492  0.28127892  0.75000000  1
  Sn  Sn14  8  0.17268749  0.40612782  0.75000000  1
  Sn  Sn15  8  0.17361384  0.34375140  0.25000000  1
  Sn  Sn16  8  0.17734663  0.03112375  0.75000000  1
  Sn  Sn17  4  0.00000000  0.01038246  0.25000000  1
  Sn  Sn18  4  0.00000000  0.05251656  0.25000000  1
  Sn  Sn19  4  0.00000000  0.07324109  0.75000000  1
  Sn  Sn20  4  0.00000000  0.11455466  0.75000000  1
  Sn  Sn21  4  0.00000000  0.13541704  0.25000000  1
  Sn  Sn22  4  0.00000000  0.17706080  0.25000000  1
  Sn  Sn23  4  0.00000000  0.19798217  0.75000000  1
  Sn  Sn24  4  0.00000000  0.23895115  0.75000000  1
  Sn  Sn25  4  0.00000000  0.25977369  0.25000000  1
  Sn  Sn26  4  0.00000000  0.30219919  0.25000000  1
  Sn  Sn27  4  0.00000000  0.32289970  0.75000000  1
  Sn  Sn28  4  0.00000000  0.36458931  0.75000000  1
  Sn  Sn29  4  0.00000000  0.38538043  0.25000000  1
  Sn  Sn30  4  0.00000000  0.42749325  0.25000000  1
  Sn  Sn31  4  0.00000000  0.44816700  0.75000000  1
  Sn  Sn32  4  0.00000000  0.48954786  0.75000000  1
