# generated using pymatgen
data_U(GeW)6
_symmetry_space_group_name_H-M   Cmcm
_cell_length_a   8.98476455
_cell_length_b   74.98791092
_cell_length_c   5.40391614
_cell_angle_alpha   90.00000000
_cell_angle_beta   90.00000000
_cell_angle_gamma   90.00000000
_symmetry_Int_Tables_number   63
_chemical_formula_structural   U(GeW)6
_chemical_formula_sum   'U16 Ge96 W96'
_cell_volume   3640.88160139
_cell_formula_units_Z   16
loop_
 _symmetry_equiv_pos_site_id
 _symmetry_equiv_pos_as_xyz
  1  'x, y, z'
  2  '-x, -y, -z'
  3  '-x, -y, z+1/2'
  4  'x, y, -z+1/2'
  5  'x, -y, -z'
  6  '-x, y, z'
  7  '-x, y, -z+1/2'
  8  'x, -y, z+1/2'
  9  'x+1/2, y+1/2, z'
  10  '-x+1/2, -y+1/2, -z'
  11  '-x+1/2, -y+1/2, z+1/2'
  12  'x+1/2, y+1/2, -z+1/2'
  13  'x+1/2, -y+1/2, -z'
  14  '-x+1/2, y+1/2, z'
  15  '-x+1/2, y+1/2, -z+1/2'
  16  'x+1/2, -y+1/2, z+1/2'
loop_
 _atom_site_type_symbol
 _atom_site_label
 _atom_site_symmetry_multiplicity
 _atom_site_fract_x
 _atom_site_fract_y
 _atom_site_fract_z
 _atom_site_occupancy
  U  U0  4  0.00000000  0.03122007  0.25000000  1
  U  U1  4  0.00000000  0.28153112  0.25000000  1
  U  U2  4  0.00000000  0.34375665  0.75000000  1
  U  U3  4  0.00000000  0.40612659  0.25000000  1
  Ge  Ge4  8  0.17134837  0.21890457  0.75000000  1
  Ge  Ge5  8  0.17149871  0.90629530  0.25000000  1
  Ge  Ge6  8  0.17218970  0.15624453  0.25000000  1
  Ge  Ge7  8  0.17314198  0.46870020  0.75000000  1
  Ge  Ge8  4  0.00000000  0.01039776  0.75000000  1
  Ge  Ge9  4  0.00000000  0.05123590  0.75000000  1
  Ge  Ge10  4  0.00000000  0.07197394  0.25000000  1
  Ge  Ge11  4  0.00000000  0.11456755  0.25000000  1
  Ge  Ge12  4  0.00000000  0.13541182  0.75000000  1
  Ge  Ge13  4  0.00000000  0.17711939  0.75000000  1
  Ge  Ge14  4  0.00000000  0.19787514  0.25000000  1
  Ge  Ge15  4  0.00000000  0.24092120  0.25000000  1
  Ge  Ge16  4  0.00000000  0.26166348  0.75000000  1
  Ge  Ge17  4  0.00000000  0.30213138  0.75000000  1
  Ge  Ge18  4  0.00000000  0.32298227  0.25000000  1
  Ge  Ge19  4  0.00000000  0.36454491  0.25000000  1
  Ge  Ge20  4  0.00000000  0.38536295  0.75000000  1
  Ge  Ge21  4  0.00000000  0.42612162  0.75000000  1
  Ge  Ge22  4  0.00000000  0.44691234  0.25000000  1
  Ge  Ge23  4  0.00000000  0.48958584  0.25000000  1
  W  W24  16  0.24654582  0.12499020  0.00002278  1
  W  W25  16  0.24659601  0.81247374  0.00005473  1
  W  W26  16  0.24898366  0.06245719  0.00011738  1
  W  W27  8  0.24544164  0.21877090  0.25000000  1
  W  W28  8  0.24656282  0.15625697  0.75000000  1
  W  W29  8  0.24690688  0.09372277  0.25000000  1
  W  W30  8  0.24890930  0.50000000  0.00000000  1
  W  W31  8  0.24924383  0.46876933  0.25000000  1
  W  W32  8  0.25000000  0.25000000  0.00000000  1
