# generated using pymatgen
data_U(GeRh)6
_symmetry_space_group_name_H-M   Cmcm
_cell_length_a   8.05740555
_cell_length_b   75.76171946
_cell_length_c   5.46344631
_cell_angle_alpha   90.00000000
_cell_angle_beta   90.00000000
_cell_angle_gamma   90.00000000
_symmetry_Int_Tables_number   63
_chemical_formula_structural   U(GeRh)6
_chemical_formula_sum   'U16 Ge96 Rh96'
_cell_volume   3335.12200329
_cell_formula_units_Z   16
loop_
 _symmetry_equiv_pos_site_id
 _symmetry_equiv_pos_as_xyz
  1  'x, y, z'
  2  '-x, -y, -z'
  3  '-x, -y, z+1/2'
  4  'x, y, -z+1/2'
  5  'x, -y, -z'
  6  '-x, y, z'
  7  '-x, y, -z+1/2'
  8  'x, -y, z+1/2'
  9  'x+1/2, y+1/2, z'
  10  '-x+1/2, -y+1/2, -z'
  11  '-x+1/2, -y+1/2, z+1/2'
  12  'x+1/2, y+1/2, -z+1/2'
  13  'x+1/2, -y+1/2, -z'
  14  '-x+1/2, y+1/2, z'
  15  '-x+1/2, y+1/2, -z+1/2'
  16  'x+1/2, -y+1/2, z+1/2'
loop_
 _atom_site_type_symbol
 _atom_site_label
 _atom_site_symmetry_multiplicity
 _atom_site_fract_x
 _atom_site_fract_y
 _atom_site_fract_z
 _atom_site_occupancy
  U  U0  4  0.00000000  0.09369103  0.25000000  1
  U  U1  4  0.00000000  0.15624667  0.75000000  1
  U  U2  4  0.00000000  0.21865211  0.25000000  1
  U  U3  4  0.00000000  0.46857213  0.25000000  1
  Ge  Ge4  8  0.15703731  0.34377041  0.25000000  1
  Ge  Ge5  8  0.15744330  0.40598723  0.75000000  1
  Ge  Ge6  8  0.15752203  0.71866346  0.25000000  1
  Ge  Ge7  8  0.15854880  0.03112142  0.75000000  1
  Ge  Ge8  4  0.00000000  0.01039176  0.25000000  1
  Ge  Ge9  4  0.00000000  0.05261855  0.25000000  1
  Ge  Ge10  4  0.00000000  0.07339024  0.75000000  1
  Ge  Ge11  4  0.00000000  0.11455244  0.75000000  1
  Ge  Ge12  4  0.00000000  0.13541195  0.25000000  1
  Ge  Ge13  4  0.00000000  0.17706520  0.25000000  1
  Ge  Ge14  4  0.00000000  0.19795626  0.75000000  1
  Ge  Ge15  4  0.00000000  0.23891879  0.75000000  1
  Ge  Ge16  4  0.00000000  0.25971763  0.25000000  1
  Ge  Ge17  4  0.00000000  0.30213505  0.25000000  1
  Ge  Ge18  4  0.00000000  0.32291125  0.75000000  1
  Ge  Ge19  4  0.00000000  0.36456563  0.75000000  1
  Ge  Ge20  4  0.00000000  0.38540387  0.25000000  1
  Ge  Ge21  4  0.00000000  0.42732054  0.25000000  1
  Ge  Ge22  4  0.00000000  0.44816295  0.75000000  1
  Ge  Ge23  4  0.00000000  0.48957048  0.75000000  1
  Rh  Rh24  16  0.24725874  0.43745906  0.50005670  1
  Rh  Rh25  16  0.24768599  0.37499115  0.50005717  1
  Rh  Rh26  16  0.24769323  0.31248092  0.50008896  1
  Rh  Rh27  8  0.24582271  0.28125566  0.25000000  1
  Rh  Rh28  8  0.24608320  0.53126246  0.25000000  1
  Rh  Rh29  8  0.24678524  0.50000000  0.00000000  1
  Rh  Rh30  8  0.24757340  0.34373933  0.75000000  1
  Rh  Rh31  8  0.24861290  0.40620834  0.25000000  1
  Rh  Rh32  8  0.25000000  0.25000000  0.00000000  1
