# generated using pymatgen
data_U(CrPb)6
_symmetry_space_group_name_H-M   Cmmm
_cell_length_a   5.75183083
_cell_length_b   49.93861768
_cell_length_c   9.76565398
_cell_angle_alpha   90.00000000
_cell_angle_beta   90.00000000
_cell_angle_gamma   90.00000000
_symmetry_Int_Tables_number   65
_chemical_formula_structural   U(CrPb)6
_chemical_formula_sum   'U10 Cr60 Pb60'
_cell_volume   2805.07161203
_cell_formula_units_Z   10
loop_
 _symmetry_equiv_pos_site_id
 _symmetry_equiv_pos_as_xyz
  1  'x, y, z'
  2  '-x, -y, -z'
  3  '-x, -y, z'
  4  'x, y, -z'
  5  'x, -y, -z'
  6  '-x, y, z'
  7  '-x, y, -z'
  8  'x, -y, z'
  9  'x+1/2, y+1/2, z'
  10  '-x+1/2, -y+1/2, -z'
  11  '-x+1/2, -y+1/2, z'
  12  'x+1/2, y+1/2, -z'
  13  'x+1/2, -y+1/2, -z'
  14  '-x+1/2, y+1/2, z'
  15  '-x+1/2, y+1/2, -z'
  16  'x+1/2, -y+1/2, z'
loop_
 _atom_site_type_symbol
 _atom_site_label
 _atom_site_symmetry_multiplicity
 _atom_site_fract_x
 _atom_site_fract_y
 _atom_site_fract_z
 _atom_site_occupancy
  U  U0  4  0.00000000  0.20000318  0.50000000  1
  U  U1  4  0.00000000  0.40001716  0.00000000  1
  U  U2  2  0.00000000  0.00000000  0.00000000  1
  Cr  Cr3  16  0.24998767  0.95002056  0.24429795  1
  Cr  Cr4  16  0.24999708  0.35000144  0.25000241  1
  Cr  Cr5  8  0.00000000  0.09976851  0.24324259  1
  Cr  Cr6  8  0.00000000  0.29977169  0.25674184  1
  Cr  Cr7  8  0.25000000  0.25000000  0.25573492  1
  Cr  Cr8  4  0.00000000  0.50000000  0.24406979  1
  Pb  Pb9  8  0.00000000  0.20003299  0.17780864  1
  Pb  Pb10  8  0.00000000  0.40004361  0.32220463  1
  Pb  Pb11  4  0.00000000  0.00000000  0.32220967  1
  Pb  Pb12  4  0.00000000  0.06662174  0.50000000  1
  Pb  Pb13  4  0.00000000  0.06671160  0.00000000  1
  Pb  Pb14  4  0.00000000  0.13284836  0.50000000  1
  Pb  Pb15  4  0.00000000  0.13361990  0.00000000  1
  Pb  Pb16  4  0.00000000  0.26663872  0.00000000  1
  Pb  Pb17  4  0.00000000  0.26678157  0.50000000  1
  Pb  Pb18  4  0.00000000  0.33285427  0.00000000  1
  Pb  Pb19  4  0.00000000  0.33362941  0.50000000  1
  Pb  Pb20  4  0.00000000  0.46675841  0.50000000  1
  Pb  Pb21  4  0.00000000  0.46676603  0.00000000  1
