# generated using pymatgen
data_U(PtPb)6
_symmetry_space_group_name_H-M   Cmmm
_cell_length_a   5.73524153
_cell_length_b   49.68054794
_cell_length_c   9.98429491
_cell_angle_alpha   90.00000000
_cell_angle_beta   90.00000000
_cell_angle_gamma   90.00000000
_symmetry_Int_Tables_number   65
_chemical_formula_structural   U(PtPb)6
_chemical_formula_sum   'U10 Pt60 Pb60'
_cell_volume   2844.82456621
_cell_formula_units_Z   10
loop_
 _symmetry_equiv_pos_site_id
 _symmetry_equiv_pos_as_xyz
  1  'x, y, z'
  2  '-x, -y, -z'
  3  '-x, -y, z'
  4  'x, y, -z'
  5  'x, -y, -z'
  6  '-x, y, z'
  7  '-x, y, -z'
  8  'x, -y, z'
  9  'x+1/2, y+1/2, z'
  10  '-x+1/2, -y+1/2, -z'
  11  '-x+1/2, -y+1/2, z'
  12  'x+1/2, y+1/2, -z'
  13  'x+1/2, -y+1/2, -z'
  14  '-x+1/2, y+1/2, z'
  15  '-x+1/2, y+1/2, -z'
  16  'x+1/2, -y+1/2, z'
loop_
 _atom_site_type_symbol
 _atom_site_label
 _atom_site_symmetry_multiplicity
 _atom_site_fract_x
 _atom_site_fract_y
 _atom_site_fract_z
 _atom_site_occupancy
  U  U0  4  0.00000000  0.10061687  0.00000000  1
  U  U1  4  0.00000000  0.30056916  0.50000000  1
  U  U2  2  0.00000000  0.50000000  0.00000000  1
  Pt  Pt3  16  0.24986475  0.44997046  0.23902554  1
  Pt  Pt4  16  0.24998095  0.15000582  0.25000653  1
  Pt  Pt5  8  0.00000000  0.19985414  0.26372992  1
  Pt  Pt6  8  0.00000000  0.39982959  0.23636784  1
  Pt  Pt7  8  0.25000000  0.25000000  0.26105290  1
  Pt  Pt8  4  0.00000000  0.00000000  0.23897864  1
  Pb  Pb9  8  0.00000000  0.09975121  0.31986348  1
  Pb  Pb10  8  0.00000000  0.29974680  0.18019157  1
  Pb  Pb11  4  0.00000000  0.03329467  0.50000000  1
  Pb  Pb12  4  0.00000000  0.03343305  0.00000000  1
  Pb  Pb13  4  0.00000000  0.16596195  0.50000000  1
  Pb  Pb14  4  0.00000000  0.16708975  0.00000000  1
  Pb  Pb15  4  0.00000000  0.23324755  0.50000000  1
  Pb  Pb16  4  0.00000000  0.23350656  0.00000000  1
  Pb  Pb17  4  0.00000000  0.36592089  0.00000000  1
  Pb  Pb18  4  0.00000000  0.36707669  0.50000000  1
  Pb  Pb19  4  0.00000000  0.43311443  0.00000000  1
  Pb  Pb20  4  0.00000000  0.43352064  0.50000000  1
  Pb  Pb21  4  0.00000000  0.50000000  0.32033306  1
