# generated using pymatgen
data_U(FeGe)6
_symmetry_space_group_name_H-M   Cmcm
_cell_length_a   8.09257008
_cell_length_b   70.37993697
_cell_length_c   5.08552620
_cell_angle_alpha   90.00000000
_cell_angle_beta   90.00000000
_cell_angle_gamma   90.00000000
_symmetry_Int_Tables_number   63
_chemical_formula_structural   U(FeGe)6
_chemical_formula_sum   'U16 Fe96 Ge96'
_cell_volume   2896.48470027
_cell_formula_units_Z   16
loop_
 _symmetry_equiv_pos_site_id
 _symmetry_equiv_pos_as_xyz
  1  'x, y, z'
  2  '-x, -y, -z'
  3  '-x, -y, z+1/2'
  4  'x, y, -z+1/2'
  5  'x, -y, -z'
  6  '-x, y, z'
  7  '-x, y, -z+1/2'
  8  'x, -y, z+1/2'
  9  'x+1/2, y+1/2, z'
  10  '-x+1/2, -y+1/2, -z'
  11  '-x+1/2, -y+1/2, z+1/2'
  12  'x+1/2, y+1/2, -z+1/2'
  13  'x+1/2, -y+1/2, -z'
  14  '-x+1/2, y+1/2, z'
  15  '-x+1/2, y+1/2, -z+1/2'
  16  'x+1/2, -y+1/2, z+1/2'
loop_
 _atom_site_type_symbol
 _atom_site_label
 _atom_site_symmetry_multiplicity
 _atom_site_fract_x
 _atom_site_fract_y
 _atom_site_fract_z
 _atom_site_occupancy
  U  U0  4  0.00000000  0.03194264  0.25000000  1
  U  U1  4  0.00000000  0.28042787  0.25000000  1
  U  U2  4  0.00000000  0.34375075  0.75000000  1
  U  U3  4  0.00000000  0.40693111  0.25000000  1
  Fe  Fe4  16  0.24445701  0.06227137  0.00238480  1
  Fe  Fe5  16  0.24971331  0.37497612  0.50057251  1
  Fe  Fe6  16  0.24993647  0.18746470  0.00083939  1
  Fe  Fe7  8  0.23914854  0.03127887  0.75000000  1
  Fe  Fe8  8  0.24173827  0.00000000  0.00000000  1
  Fe  Fe9  8  0.24800378  0.40627087  0.75000000  1
  Fe  Fe10  8  0.24822948  0.28121766  0.75000000  1
  Fe  Fe11  8  0.24967977  0.34375498  0.25000000  1
  Fe  Fe12  8  0.25000000  0.25000000  0.00000000  1
  Ge  Ge13  8  0.15236017  0.15623502  0.25000000  1
  Ge  Ge14  8  0.15245789  0.21860568  0.75000000  1
  Ge  Ge15  8  0.15273527  0.09391140  0.75000000  1
  Ge  Ge16  8  0.15341288  0.46895408  0.75000000  1
  Ge  Ge17  4  0.00000000  0.01035523  0.75000000  1
  Ge  Ge18  4  0.00000000  0.05290339  0.75000000  1
  Ge  Ge19  4  0.00000000  0.07382485  0.25000000  1
  Ge  Ge20  4  0.00000000  0.11461589  0.25000000  1
  Ge  Ge21  4  0.00000000  0.13540333  0.75000000  1
  Ge  Ge22  4  0.00000000  0.17707984  0.75000000  1
  Ge  Ge23  4  0.00000000  0.19793276  0.25000000  1
  Ge  Ge24  4  0.00000000  0.23902811  0.25000000  1
  Ge  Ge25  4  0.00000000  0.25976537  0.75000000  1
  Ge  Ge26  4  0.00000000  0.30190144  0.75000000  1
  Ge  Ge27  4  0.00000000  0.32267883  0.25000000  1
  Ge  Ge28  4  0.00000000  0.36475083  0.25000000  1
  Ge  Ge29  4  0.00000000  0.38562555  0.75000000  1
  Ge  Ge30  4  0.00000000  0.42804747  0.75000000  1
  Ge  Ge31  4  0.00000000  0.44869026  0.25000000  1
  Ge  Ge32  4  0.00000000  0.48950879  0.25000000  1
