# generated using pymatgen
data_U(SiAg)6
_symmetry_space_group_name_H-M   Immm
_cell_length_a   5.71485412
_cell_length_b   8.23805511
_cell_length_c   29.36428964
_cell_angle_alpha   90.00000000
_cell_angle_beta   90.00000000
_cell_angle_gamma   90.00000000
_symmetry_Int_Tables_number   71
_chemical_formula_structural   U(SiAg)6
_chemical_formula_sum   'U6 Si36 Ag36'
_cell_volume   1382.44970613
_cell_formula_units_Z   6
loop_
 _symmetry_equiv_pos_site_id
 _symmetry_equiv_pos_as_xyz
  1  'x, y, z'
  2  '-x, -y, -z'
  3  '-x, -y, z'
  4  'x, y, -z'
  5  'x, -y, -z'
  6  '-x, y, z'
  7  '-x, y, -z'
  8  'x, -y, z'
  9  'x+1/2, y+1/2, z+1/2'
  10  '-x+1/2, -y+1/2, -z+1/2'
  11  '-x+1/2, -y+1/2, z+1/2'
  12  'x+1/2, y+1/2, -z+1/2'
  13  'x+1/2, -y+1/2, -z+1/2'
  14  '-x+1/2, y+1/2, z+1/2'
  15  '-x+1/2, y+1/2, -z+1/2'
  16  'x+1/2, -y+1/2, z+1/2'
loop_
 _atom_site_type_symbol
 _atom_site_label
 _atom_site_symmetry_multiplicity
 _atom_site_fract_x
 _atom_site_fract_y
 _atom_site_fract_z
 _atom_site_occupancy
  U  U0  4  0.00000000  0.50000000  0.33618902  1
  U  U1  2  0.00000000  0.00000000  0.00000000  1
  Si  Si2  8  0.00000000  0.13929936  0.33965639  1
  Si  Si3  4  0.00000000  0.00000000  0.11818418  1
  Si  Si4  4  0.00000000  0.00000000  0.21008734  1
  Si  Si5  4  0.00000000  0.00000000  0.43323814  1
  Si  Si6  4  0.00000000  0.36131216  0.00000000  1
  Si  Si7  4  0.00000000  0.50000000  0.10420261  1
  Si  Si8  4  0.00000000  0.50000000  0.23614084  1
  Si  Si9  4  0.00000000  0.50000000  0.44843521  1
  Ag  Ag10  16  0.24923874  0.24849043  0.08341569  1
  Ag  Ag11  8  0.00000000  0.27523990  0.16707281  1
  Ag  Ag12  8  0.25000000  0.25000000  0.25000000  1
  Ag  Ag13  4  0.00000000  0.22874121  0.50000000  1
