# generated using pymatgen
data_U(CoPb)6
_symmetry_space_group_name_H-M   Cmmm
_cell_length_a   5.43161871
_cell_length_b   47.04984548
_cell_length_c   9.15766970
_cell_angle_alpha   90.00000000
_cell_angle_beta   90.00000000
_cell_angle_gamma   90.00000000
_symmetry_Int_Tables_number   65
_chemical_formula_structural   U(CoPb)6
_chemical_formula_sum   'U10 Co60 Pb60'
_cell_volume   2340.30495639
_cell_formula_units_Z   10
loop_
 _symmetry_equiv_pos_site_id
 _symmetry_equiv_pos_as_xyz
  1  'x, y, z'
  2  '-x, -y, -z'
  3  '-x, -y, z'
  4  'x, y, -z'
  5  'x, -y, -z'
  6  '-x, y, z'
  7  '-x, y, -z'
  8  'x, -y, z'
  9  'x+1/2, y+1/2, z'
  10  '-x+1/2, -y+1/2, -z'
  11  '-x+1/2, -y+1/2, z'
  12  'x+1/2, y+1/2, -z'
  13  'x+1/2, -y+1/2, -z'
  14  '-x+1/2, y+1/2, z'
  15  '-x+1/2, y+1/2, -z'
  16  'x+1/2, -y+1/2, z'
loop_
 _atom_site_type_symbol
 _atom_site_label
 _atom_site_symmetry_multiplicity
 _atom_site_fract_x
 _atom_site_fract_y
 _atom_site_fract_z
 _atom_site_occupancy
  U  U0  4  0.00000000  0.19955663  0.50000000  1
  U  U1  4  0.00000000  0.39948933  0.00000000  1
  U  U2  2  0.00000000  0.00000000  0.00000000  1
  Co  Co3  16  0.24975788  0.04998285  0.24383874  1
  Co  Co4  16  0.24997882  0.34999966  0.25000105  1
  Co  Co5  8  0.00000000  0.10002916  0.24362484  1
  Co  Co6  8  0.00000000  0.30002021  0.25644722  1
  Co  Co7  8  0.25000000  0.25000000  0.25616229  1
  Co  Co8  4  0.00000000  0.50000000  0.24369527  1
  Pb  Pb9  8  0.00000000  0.20017115  0.17802975  1
  Pb  Pb10  8  0.00000000  0.40017879  0.32197205  1
  Pb  Pb11  4  0.00000000  0.00000000  0.32235424  1
  Pb  Pb12  4  0.00000000  0.06667736  0.50000000  1
  Pb  Pb13  4  0.00000000  0.06685382  0.00000000  1
  Pb  Pb14  4  0.00000000  0.13310844  0.50000000  1
  Pb  Pb15  4  0.00000000  0.13373825  0.00000000  1
  Pb  Pb16  4  0.00000000  0.26667543  0.00000000  1
  Pb  Pb17  4  0.00000000  0.26671183  0.50000000  1
  Pb  Pb18  4  0.00000000  0.33309206  0.00000000  1
  Pb  Pb19  4  0.00000000  0.33370546  0.50000000  1
  Pb  Pb20  4  0.00000000  0.46654018  0.00000000  1
  Pb  Pb21  4  0.00000000  0.46669420  0.50000000  1
