# generated using pymatgen
data_U(CoSn)6
_symmetry_space_group_name_H-M   Cmcm
_cell_length_a   8.81328782
_cell_length_b   36.67451174
_cell_length_c   5.29469711
_cell_angle_alpha   90.00000000
_cell_angle_beta   90.00000000
_cell_angle_gamma   90.00000000
_symmetry_Int_Tables_number   63
_chemical_formula_structural   U(CoSn)6
_chemical_formula_sum   'U8 Co48 Sn48'
_cell_volume   1711.36802954
_cell_formula_units_Z   8
loop_
 _symmetry_equiv_pos_site_id
 _symmetry_equiv_pos_as_xyz
  1  'x, y, z'
  2  '-x, -y, -z'
  3  '-x, -y, z+1/2'
  4  'x, y, -z+1/2'
  5  'x, -y, -z'
  6  '-x, y, z'
  7  '-x, y, -z+1/2'
  8  'x, -y, z+1/2'
  9  'x+1/2, y+1/2, z'
  10  '-x+1/2, -y+1/2, -z'
  11  '-x+1/2, -y+1/2, z+1/2'
  12  'x+1/2, y+1/2, -z+1/2'
  13  'x+1/2, -y+1/2, -z'
  14  '-x+1/2, y+1/2, z'
  15  '-x+1/2, y+1/2, -z+1/2'
  16  'x+1/2, -y+1/2, z+1/2'
loop_
 _atom_site_type_symbol
 _atom_site_label
 _atom_site_symmetry_multiplicity
 _atom_site_fract_x
 _atom_site_fract_y
 _atom_site_fract_z
 _atom_site_occupancy
  U  U0  4  0.00000000  0.30832024  0.25000000  1
  U  U1  4  0.00000000  0.43530426  0.75000000  1
  Co  Co2  16  0.24886111  0.37589735  0.50515201  1
  Co  Co3  8  0.24533389  0.31215672  0.75000000  1
  Co  Co4  8  0.24670806  0.43743705  0.25000000  1
  Co  Co5  8  0.24780101  0.50000000  0.00000000  1
  Co  Co6  8  0.25000000  0.25000000  0.00000000  1
  Sn  Sn7  8  0.16522377  0.93906624  0.75000000  1
  Sn  Sn8  8  0.16652851  0.18649910  0.75000000  1
  Sn  Sn9  4  0.00000000  0.02120543  0.75000000  1
  Sn  Sn10  4  0.00000000  0.10347084  0.75000000  1
  Sn  Sn11  4  0.00000000  0.14447287  0.25000000  1
  Sn  Sn12  4  0.00000000  0.22536376  0.25000000  1
  Sn  Sn13  4  0.00000000  0.26749310  0.75000000  1
  Sn  Sn14  4  0.00000000  0.35232337  0.75000000  1
  Sn  Sn15  4  0.00000000  0.39407034  0.25000000  1
  Sn  Sn16  4  0.00000000  0.47919183  0.25000000  1
