# generated using pymatgen
data_U(NbSi)6
_symmetry_space_group_name_H-M   Cmcm
_cell_length_a   8.49787055
_cell_length_b   19.21104501
_cell_length_c   5.64142637
_cell_angle_alpha   90.00000000
_cell_angle_beta   90.00000000
_cell_angle_gamma   90.00000000
_symmetry_Int_Tables_number   63
_chemical_formula_structural   U(NbSi)6
_chemical_formula_sum   'U4 Nb24 Si24'
_cell_volume   920.97962997
_cell_formula_units_Z   4
loop_
 _symmetry_equiv_pos_site_id
 _symmetry_equiv_pos_as_xyz
  1  'x, y, z'
  2  '-x, -y, -z'
  3  '-x, -y, z+1/2'
  4  'x, y, -z+1/2'
  5  'x, -y, -z'
  6  '-x, y, z'
  7  '-x, y, -z+1/2'
  8  'x, -y, z+1/2'
  9  'x+1/2, y+1/2, z'
  10  '-x+1/2, -y+1/2, -z'
  11  '-x+1/2, -y+1/2, z+1/2'
  12  'x+1/2, y+1/2, -z+1/2'
  13  'x+1/2, -y+1/2, -z'
  14  '-x+1/2, y+1/2, z'
  15  '-x+1/2, y+1/2, -z+1/2'
  16  'x+1/2, -y+1/2, z+1/2'
loop_
 _atom_site_type_symbol
 _atom_site_label
 _atom_site_symmetry_multiplicity
 _atom_site_fract_x
 _atom_site_fract_y
 _atom_site_fract_z
 _atom_site_occupancy
  U  U0  4  0.00000000  0.37770433  0.75000000  1
  Nb  Nb1  8  0.22666099  0.12433022  0.75000000  1
  Nb  Nb2  8  0.23694148  0.50000000  0.00000000  1
  Nb  Nb3  8  0.25000000  0.25000000  0.00000000  1
  Si  Si4  8  0.16087481  0.12356215  0.25000000  1
  Si  Si5  4  0.00000000  0.02728022  0.75000000  1
  Si  Si6  4  0.00000000  0.21949257  0.75000000  1
  Si  Si7  4  0.00000000  0.30395420  0.25000000  1
  Si  Si8  4  0.00000000  0.44734552  0.25000000  1
