# generated using pymatgen
data_Zr6UPb6
_symmetry_space_group_name_H-M   Cmcm
_cell_length_a   10.39848834
_cell_length_b   20.86021462
_cell_length_c   6.01956749
_cell_angle_alpha   90.00000000
_cell_angle_beta   90.00000000
_cell_angle_gamma   90.00000000
_symmetry_Int_Tables_number   63
_chemical_formula_structural   Zr6UPb6
_chemical_formula_sum   'Zr24 U4 Pb24'
_cell_volume   1305.73266577
_cell_formula_units_Z   4
loop_
 _symmetry_equiv_pos_site_id
 _symmetry_equiv_pos_as_xyz
  1  'x, y, z'
  2  '-x, -y, -z'
  3  '-x, -y, z+1/2'
  4  'x, y, -z+1/2'
  5  'x, -y, -z'
  6  '-x, y, z'
  7  '-x, y, -z+1/2'
  8  'x, -y, z+1/2'
  9  'x+1/2, y+1/2, z'
  10  '-x+1/2, -y+1/2, -z'
  11  '-x+1/2, -y+1/2, z+1/2'
  12  'x+1/2, y+1/2, -z+1/2'
  13  'x+1/2, -y+1/2, -z'
  14  '-x+1/2, y+1/2, z'
  15  '-x+1/2, y+1/2, -z+1/2'
  16  'x+1/2, -y+1/2, z+1/2'
loop_
 _atom_site_type_symbol
 _atom_site_label
 _atom_site_symmetry_multiplicity
 _atom_site_fract_x
 _atom_site_fract_y
 _atom_site_fract_z
 _atom_site_occupancy
  Zr  Zr0  8  0.24574431  0.37475232  0.75000000  1
  Zr  Zr1  8  0.24747647  0.50000000  0.00000000  1
  Zr  Zr2  8  0.25000000  0.25000000  0.00000000  1
  U  U3  4  0.00000000  0.37499915  0.25000000  1
  Pb  Pb4  8  0.16119522  0.87487810  0.25000000  1
  Pb  Pb5  4  0.00000000  0.04212002  0.25000000  1
  Pb  Pb6  4  0.00000000  0.20821201  0.25000000  1
  Pb  Pb7  4  0.00000000  0.29091464  0.75000000  1
  Pb  Pb8  4  0.00000000  0.45841168  0.75000000  1
