# generated using pymatgen
data_U(NiPb)6
_symmetry_space_group_name_H-M   Cmcm
_cell_length_a   9.46189692
_cell_length_b   38.09620658
_cell_length_c   5.50808658
_cell_angle_alpha   90.00000000
_cell_angle_beta   90.00000000
_cell_angle_gamma   90.00000000
_symmetry_Int_Tables_number   63
_chemical_formula_structural   U(NiPb)6
_chemical_formula_sum   'U8 Ni48 Pb48'
_cell_volume   1985.45799646
_cell_formula_units_Z   8
loop_
 _symmetry_equiv_pos_site_id
 _symmetry_equiv_pos_as_xyz
  1  'x, y, z'
  2  '-x, -y, -z'
  3  '-x, -y, z+1/2'
  4  'x, y, -z+1/2'
  5  'x, -y, -z'
  6  '-x, y, z'
  7  '-x, y, -z+1/2'
  8  'x, -y, z+1/2'
  9  'x+1/2, y+1/2, z'
  10  '-x+1/2, -y+1/2, -z'
  11  '-x+1/2, -y+1/2, z+1/2'
  12  'x+1/2, y+1/2, -z+1/2'
  13  'x+1/2, -y+1/2, -z'
  14  '-x+1/2, y+1/2, z'
  15  '-x+1/2, y+1/2, -z+1/2'
  16  'x+1/2, -y+1/2, z+1/2'
loop_
 _atom_site_type_symbol
 _atom_site_label
 _atom_site_symmetry_multiplicity
 _atom_site_fract_x
 _atom_site_fract_y
 _atom_site_fract_z
 _atom_site_occupancy
  U  U0  4  0.00000000  0.06432350  0.75000000  1
  U  U1  4  0.00000000  0.19119361  0.25000000  1
  Ni  Ni2  16  0.23951219  0.12452984  0.50706796  1
  Ni  Ni3  8  0.23683274  0.00000000  0.00000000  1
  Ni  Ni4  8  0.23739022  0.18859047  0.75000000  1
  Ni  Ni5  8  0.23808304  0.06260778  0.25000000  1
  Ni  Ni6  8  0.25000000  0.25000000  0.00000000  1
  Pb  Pb7  8  0.17779050  0.43939854  0.25000000  1
  Pb  Pb8  8  0.17887509  0.31461743  0.75000000  1
  Pb  Pb9  4  0.00000000  0.02111212  0.25000000  1
  Pb  Pb10  4  0.00000000  0.10584748  0.25000000  1
  Pb  Pb11  4  0.00000000  0.14814990  0.75000000  1
  Pb  Pb12  4  0.00000000  0.23303638  0.75000000  1
  Pb  Pb13  4  0.00000000  0.27498670  0.25000000  1
  Pb  Pb14  4  0.00000000  0.35704663  0.25000000  1
  Pb  Pb15  4  0.00000000  0.39661659  0.75000000  1
  Pb  Pb16  4  0.00000000  0.47881433  0.75000000  1
