# generated using pymatgen
data_U(VPb)6
_symmetry_space_group_name_H-M   Immm
_cell_length_a   5.61693971
_cell_length_b   9.70978250
_cell_length_c   29.20480699
_cell_angle_alpha   90.00000000
_cell_angle_beta   90.00000000
_cell_angle_gamma   90.00000000
_symmetry_Int_Tables_number   71
_chemical_formula_structural   U(VPb)6
_chemical_formula_sum   'U6 V36 Pb36'
_cell_volume   1592.80864642
_cell_formula_units_Z   6
loop_
 _symmetry_equiv_pos_site_id
 _symmetry_equiv_pos_as_xyz
  1  'x, y, z'
  2  '-x, -y, -z'
  3  '-x, -y, z'
  4  'x, y, -z'
  5  'x, -y, -z'
  6  '-x, y, z'
  7  '-x, y, -z'
  8  'x, -y, z'
  9  'x+1/2, y+1/2, z+1/2'
  10  '-x+1/2, -y+1/2, -z+1/2'
  11  '-x+1/2, -y+1/2, z+1/2'
  12  'x+1/2, y+1/2, -z+1/2'
  13  'x+1/2, -y+1/2, -z+1/2'
  14  '-x+1/2, y+1/2, z+1/2'
  15  '-x+1/2, y+1/2, -z+1/2'
  16  'x+1/2, -y+1/2, z+1/2'
loop_
 _atom_site_type_symbol
 _atom_site_label
 _atom_site_symmetry_multiplicity
 _atom_site_fract_x
 _atom_site_fract_y
 _atom_site_fract_z
 _atom_site_occupancy
  U  U0  4  0.00000000  0.50000000  0.33328354  1
  U  U1  2  0.00000000  0.00000000  0.00000000  1
  V  V2  16  0.24959443  0.24461636  0.08319780  1
  V  V3  8  0.00000000  0.24500196  0.16676173  1
  V  V4  8  0.25000000  0.25000000  0.25000000  1
  V  V5  4  0.00000000  0.25523909  0.50000000  1
  Pb  Pb6  8  0.00000000  0.18143653  0.33366784  1
  Pb  Pb7  4  0.00000000  0.00000000  0.11137895  1
  Pb  Pb8  4  0.00000000  0.00000000  0.22255192  1
  Pb  Pb9  4  0.00000000  0.00000000  0.44446066  1
  Pb  Pb10  4  0.00000000  0.31869212  0.00000000  1
  Pb  Pb11  4  0.00000000  0.50000000  0.11053837  1
  Pb  Pb12  4  0.00000000  0.50000000  0.22181912  1
  Pb  Pb13  4  0.00000000  0.50000000  0.44442735  1
