# generated using pymatgen
data_U(GeRu)6
_symmetry_space_group_name_H-M   Cmmm
_cell_length_a   5.42531224
_cell_length_b   47.04549137
_cell_length_c   8.05859135
_cell_angle_alpha   90.00000000
_cell_angle_beta   90.00000000
_cell_angle_gamma   90.00000000
_symmetry_Int_Tables_number   65
_chemical_formula_structural   U(GeRu)6
_chemical_formula_sum   'U10 Ge60 Ru60'
_cell_volume   2056.84649196
_cell_formula_units_Z   10
loop_
 _symmetry_equiv_pos_site_id
 _symmetry_equiv_pos_as_xyz
  1  'x, y, z'
  2  '-x, -y, -z'
  3  '-x, -y, z'
  4  'x, y, -z'
  5  'x, -y, -z'
  6  '-x, y, z'
  7  '-x, y, -z'
  8  'x, -y, z'
  9  'x+1/2, y+1/2, z'
  10  '-x+1/2, -y+1/2, -z'
  11  '-x+1/2, -y+1/2, z'
  12  'x+1/2, y+1/2, -z'
  13  'x+1/2, -y+1/2, -z'
  14  '-x+1/2, y+1/2, z'
  15  '-x+1/2, y+1/2, -z'
  16  'x+1/2, -y+1/2, z'
loop_
 _atom_site_type_symbol
 _atom_site_label
 _atom_site_symmetry_multiplicity
 _atom_site_fract_x
 _atom_site_fract_y
 _atom_site_fract_z
 _atom_site_occupancy
  U  U0  4  0.00000000  0.10019180  0.50000000  1
  U  U1  4  0.00000000  0.30017311  0.00000000  1
  U  U2  2  0.00000000  0.50000000  0.50000000  1
  Ge  Ge3  8  0.00000000  0.09973413  0.15717276  1
  Ge  Ge4  8  0.00000000  0.29974714  0.34284520  1
  Ge  Ge5  4  0.00000000  0.03316952  0.00000000  1
  Ge  Ge6  4  0.00000000  0.03330819  0.50000000  1
  Ge  Ge7  4  0.00000000  0.16673952  0.50000000  1
  Ge  Ge8  4  0.00000000  0.16684679  0.00000000  1
  Ge  Ge9  4  0.00000000  0.23319368  0.50000000  1
  Ge  Ge10  4  0.00000000  0.23322797  0.00000000  1
  Ge  Ge11  4  0.00000000  0.36673603  0.00000000  1
  Ge  Ge12  4  0.00000000  0.36684406  0.50000000  1
  Ge  Ge13  4  0.00000000  0.43319289  0.50000000  1
  Ge  Ge14  4  0.00000000  0.43320191  0.00000000  1
  Ge  Ge15  4  0.00000000  0.50000000  0.15686386  1
  Ru  Ru16  16  0.24998579  0.05000516  0.24905200  1
  Ru  Ru17  16  0.24999692  0.15000267  0.24999920  1
  Ru  Ru18  8  0.00000000  0.20003621  0.24905524  1
  Ru  Ru19  8  0.00000000  0.40002900  0.25091700  1
  Ru  Ru20  8  0.25000000  0.25000000  0.25095040  1
  Ru  Ru21  4  0.00000000  0.00000000  0.24915371  1
