# generated using pymatgen
data_U(HgGe)6
_symmetry_space_group_name_H-M   Immm
_cell_length_a   5.92817575
_cell_length_b   8.46790540
_cell_length_c   35.05647824
_cell_angle_alpha   90.00000000
_cell_angle_beta   90.00000000
_cell_angle_gamma   90.00000000
_symmetry_Int_Tables_number   71
_chemical_formula_structural   U(HgGe)6
_chemical_formula_sum   'U6 Hg36 Ge36'
_cell_volume   1759.80826434
_cell_formula_units_Z   6
loop_
 _symmetry_equiv_pos_site_id
 _symmetry_equiv_pos_as_xyz
  1  'x, y, z'
  2  '-x, -y, -z'
  3  '-x, -y, z'
  4  'x, y, -z'
  5  'x, -y, -z'
  6  '-x, y, z'
  7  '-x, y, -z'
  8  'x, -y, z'
  9  'x+1/2, y+1/2, z+1/2'
  10  '-x+1/2, -y+1/2, -z+1/2'
  11  '-x+1/2, -y+1/2, z+1/2'
  12  'x+1/2, y+1/2, -z+1/2'
  13  'x+1/2, -y+1/2, -z+1/2'
  14  '-x+1/2, y+1/2, z+1/2'
  15  '-x+1/2, y+1/2, -z+1/2'
  16  'x+1/2, -y+1/2, z+1/2'
loop_
 _atom_site_type_symbol
 _atom_site_label
 _atom_site_symmetry_multiplicity
 _atom_site_fract_x
 _atom_site_fract_y
 _atom_site_fract_z
 _atom_site_occupancy
  U  U0  4  0.00000000  0.50000000  0.34683345  1
  U  U1  2  0.00000000  0.00000000  0.00000000  1
  Hg  Hg2  16  0.24185179  0.23911740  0.07914727  1
  Hg  Hg3  8  0.00000000  0.27589916  0.16492379  1
  Hg  Hg4  8  0.25000000  0.25000000  0.25000000  1
  Hg  Hg5  4  0.00000000  0.25402140  0.50000000  1
  Ge  Ge6  8  0.00000000  0.14402030  0.32575478  1
  Ge  Ge7  4  0.00000000  0.00000000  0.12229898  1
  Ge  Ge8  4  0.00000000  0.00000000  0.19387109  1
  Ge  Ge9  4  0.00000000  0.00000000  0.43672697  1
  Ge  Ge10  4  0.00000000  0.35589426  0.00000000  1
  Ge  Ge11  4  0.00000000  0.50000000  0.10829482  1
  Ge  Ge12  4  0.00000000  0.50000000  0.25474482  1
  Ge  Ge13  4  0.00000000  0.50000000  0.45112621  1
