# generated using pymatgen
data_U(GePd)6
_symmetry_space_group_name_H-M   C2/c
_cell_length_a   8.38270835
_cell_length_b   38.72823665
_cell_length_c   5.58195498
_cell_angle_alpha   90.00000000
_cell_angle_beta   95.06671976
_cell_angle_gamma   90.00000000
_symmetry_Int_Tables_number   15
_chemical_formula_structural   U(GePd)6
_chemical_formula_sum   'U8 Ge48 Pd48'
_cell_volume   1805.08681467
_cell_formula_units_Z   8
loop_
 _symmetry_equiv_pos_site_id
 _symmetry_equiv_pos_as_xyz
  1  'x, y, z'
  2  '-x, -y, -z'
  3  '-x, y, -z+1/2'
  4  'x, -y, z+1/2'
  5  'x+1/2, y+1/2, z'
  6  '-x+1/2, -y+1/2, -z'
  7  '-x+1/2, y+1/2, -z+1/2'
  8  'x+1/2, -y+1/2, z+1/2'
loop_
 _atom_site_type_symbol
 _atom_site_label
 _atom_site_symmetry_multiplicity
 _atom_site_fract_x
 _atom_site_fract_y
 _atom_site_fract_z
 _atom_site_occupancy
  U  U0  4  0.00000000  0.06687220  0.25000000  1
  U  U1  4  0.00000000  0.19285230  0.75000000  1
  Ge  Ge2  8  0.14550208  0.44094815  0.75232148  1
  Ge  Ge3  8  0.14564100  0.31365636  0.25285563  1
  Ge  Ge4  4  0.00000000  0.02226961  0.75000000  1
  Ge  Ge5  4  0.00000000  0.10547374  0.75000000  1
  Ge  Ge6  4  0.00000000  0.14713454  0.25000000  1
  Ge  Ge7  4  0.00000000  0.22971660  0.25000000  1
  Ge  Ge8  4  0.00000000  0.27362745  0.75000000  1
  Ge  Ge9  4  0.00000000  0.35478447  0.75000000  1
  Ge  Ge10  4  0.00000000  0.39711752  0.25000000  1
  Ge  Ge11  4  0.00000000  0.47751458  0.25000000  1
  Pd  Pd12  8  0.24408802  0.37528828  0.50100489  1
  Pd  Pd13  8  0.24599653  0.37504943  0.99907590  1
  Pd  Pd14  8  0.24683051  0.49932773  0.50359299  1
  Pd  Pd15  8  0.24820174  0.18758974  0.24800811  1
  Pd  Pd16  8  0.24829724  0.43740226  0.25117541  1
  Pd  Pd17  4  0.25000000  0.25000000  0.00000000  1
  Pd  Pd18  4  0.25000000  0.25000000  0.50000000  1
