# generated using pymatgen
data_U(GeMo)6
_symmetry_space_group_name_H-M   Cmmm
_cell_length_a   5.38725100
_cell_length_b   46.67030633
_cell_length_c   8.74031571
_cell_angle_alpha   90.00000000
_cell_angle_beta   90.00000000
_cell_angle_gamma   90.00000000
_symmetry_Int_Tables_number   65
_chemical_formula_structural   U(GeMo)6
_chemical_formula_sum   'U10 Ge60 Mo60'
_cell_volume   2197.53085815
_cell_formula_units_Z   10
loop_
 _symmetry_equiv_pos_site_id
 _symmetry_equiv_pos_as_xyz
  1  'x, y, z'
  2  '-x, -y, -z'
  3  '-x, -y, z'
  4  'x, y, -z'
  5  'x, -y, -z'
  6  '-x, y, z'
  7  '-x, y, -z'
  8  'x, -y, z'
  9  'x+1/2, y+1/2, z'
  10  '-x+1/2, -y+1/2, -z'
  11  '-x+1/2, -y+1/2, z'
  12  'x+1/2, y+1/2, -z'
  13  'x+1/2, -y+1/2, -z'
  14  '-x+1/2, y+1/2, z'
  15  '-x+1/2, y+1/2, -z'
  16  'x+1/2, -y+1/2, z'
loop_
 _atom_site_type_symbol
 _atom_site_label
 _atom_site_symmetry_multiplicity
 _atom_site_fract_x
 _atom_site_fract_y
 _atom_site_fract_z
 _atom_site_occupancy
  U  U0  4  0.00000000  0.10014605  0.50000000  1
  U  U1  4  0.00000000  0.30013843  0.00000000  1
  U  U2  2  0.00000000  0.50000000  0.50000000  1
  Ge  Ge3  8  0.00000000  0.09997589  0.16490767  1
  Ge  Ge4  8  0.00000000  0.29997384  0.33509465  1
  Ge  Ge5  4  0.00000000  0.03301635  0.00000000  1
  Ge  Ge6  4  0.00000000  0.03323891  0.50000000  1
  Ge  Ge7  4  0.00000000  0.16631985  0.50000000  1
  Ge  Ge8  4  0.00000000  0.16733112  0.00000000  1
  Ge  Ge9  4  0.00000000  0.23309737  0.50000000  1
  Ge  Ge10  4  0.00000000  0.23320413  0.00000000  1
  Ge  Ge11  4  0.00000000  0.36632004  0.00000000  1
  Ge  Ge12  4  0.00000000  0.36733039  0.50000000  1
  Ge  Ge13  4  0.00000000  0.43309482  0.00000000  1
  Ge  Ge14  4  0.00000000  0.43318339  0.50000000  1
  Ge  Ge15  4  0.00000000  0.50000000  0.16524393  1
  Mo  Mo16  16  0.24996478  0.45000096  0.24937440  1
  Mo  Mo17  16  0.24999930  0.14999979  0.25000150  1
  Mo  Mo18  8  0.00000000  0.19999087  0.24997274  1
  Mo  Mo19  8  0.00000000  0.39998937  0.24999252  1
  Mo  Mo20  8  0.25000000  0.25000000  0.25069893  1
  Mo  Mo21  4  0.00000000  0.00000000  0.24942096  1
