# generated using pymatgen
data_U(GeMo)6
_symmetry_space_group_name_H-M   Immm
_cell_length_a   5.38857651
_cell_length_b   8.73242109
_cell_length_c   27.98713400
_cell_angle_alpha   90.00000000
_cell_angle_beta   90.00000000
_cell_angle_gamma   90.00000000
_symmetry_Int_Tables_number   71
_chemical_formula_structural   U(GeMo)6
_chemical_formula_sum   'U6 Ge36 Mo36'
_cell_volume   1316.94352126
_cell_formula_units_Z   6
loop_
 _symmetry_equiv_pos_site_id
 _symmetry_equiv_pos_as_xyz
  1  'x, y, z'
  2  '-x, -y, -z'
  3  '-x, -y, z'
  4  'x, y, -z'
  5  'x, -y, -z'
  6  '-x, y, z'
  7  '-x, y, -z'
  8  'x, -y, z'
  9  'x+1/2, y+1/2, z+1/2'
  10  '-x+1/2, -y+1/2, -z+1/2'
  11  '-x+1/2, -y+1/2, z+1/2'
  12  'x+1/2, y+1/2, -z+1/2'
  13  'x+1/2, -y+1/2, -z+1/2'
  14  '-x+1/2, y+1/2, z+1/2'
  15  '-x+1/2, y+1/2, -z+1/2'
  16  'x+1/2, -y+1/2, z+1/2'
loop_
 _atom_site_type_symbol
 _atom_site_label
 _atom_site_symmetry_multiplicity
 _atom_site_fract_x
 _atom_site_fract_y
 _atom_site_fract_z
 _atom_site_occupancy
  U  U0  4  0.00000000  0.50000000  0.16712342  1
  U  U1  2  0.00000000  0.00000000  0.50000000  1
  Ge  Ge2  8  0.00000000  0.15782144  0.16668326  1
  Ge  Ge3  4  0.00000000  0.00000000  0.05599135  1
  Ge  Ge4  4  0.00000000  0.00000000  0.27909618  1
  Ge  Ge5  4  0.00000000  0.00000000  0.38831205  1
  Ge  Ge6  4  0.00000000  0.34185542  0.50000000  1
  Ge  Ge7  4  0.00000000  0.50000000  0.05580663  1
  Ge  Ge8  4  0.00000000  0.50000000  0.27669055  1
  Ge  Ge9  4  0.00000000  0.50000000  0.38957225  1
  Mo  Mo10  16  0.24976229  0.24950392  0.41675163  1
  Mo  Mo11  8  0.00000000  0.25230739  0.33332762  1
  Mo  Mo12  8  0.25000000  0.25000000  0.25000000  1
  Mo  Mo13  4  0.00000000  0.25002812  0.00000000  1
