# generated using pymatgen
data_U(SiMo)6
_symmetry_space_group_name_H-M   Cmcm
_cell_length_a   8.49047518
_cell_length_b   73.64382514
_cell_length_c   5.30867704
_cell_angle_alpha   90.00000000
_cell_angle_beta   90.00000000
_cell_angle_gamma   90.00000000
_symmetry_Int_Tables_number   63
_chemical_formula_structural   U(SiMo)6
_chemical_formula_sum   'U16 Si96 Mo96'
_cell_volume   3319.36216730
_cell_formula_units_Z   16
loop_
 _symmetry_equiv_pos_site_id
 _symmetry_equiv_pos_as_xyz
  1  'x, y, z'
  2  '-x, -y, -z'
  3  '-x, -y, z+1/2'
  4  'x, y, -z+1/2'
  5  'x, -y, -z'
  6  '-x, y, z'
  7  '-x, y, -z+1/2'
  8  'x, -y, z+1/2'
  9  'x+1/2, y+1/2, z'
  10  '-x+1/2, -y+1/2, -z'
  11  '-x+1/2, -y+1/2, z+1/2'
  12  'x+1/2, y+1/2, -z+1/2'
  13  'x+1/2, -y+1/2, -z'
  14  '-x+1/2, y+1/2, z'
  15  '-x+1/2, y+1/2, -z+1/2'
  16  'x+1/2, -y+1/2, z+1/2'
loop_
 _atom_site_type_symbol
 _atom_site_label
 _atom_site_symmetry_multiplicity
 _atom_site_fract_x
 _atom_site_fract_y
 _atom_site_fract_z
 _atom_site_occupancy
  U  U0  4  0.00000000  0.09379282  0.25000000  1
  U  U1  4  0.00000000  0.15624130  0.75000000  1
  U  U2  4  0.00000000  0.21856309  0.25000000  1
  U  U3  4  0.00000000  0.46872777  0.25000000  1
  Si  Si4  8  0.16153142  0.34376432  0.25000000  1
  Si  Si5  8  0.16223704  0.40605366  0.75000000  1
  Si  Si6  8  0.16281282  0.71870379  0.25000000  1
  Si  Si7  8  0.16544831  0.96885992  0.25000000  1
  Si  Si8  4  0.00000000  0.01040073  0.25000000  1
  Si  Si9  4  0.00000000  0.05284124  0.25000000  1
  Si  Si10  4  0.00000000  0.07373486  0.75000000  1
  Si  Si11  4  0.00000000  0.11456764  0.75000000  1
  Si  Si12  4  0.00000000  0.13543062  0.25000000  1
  Si  Si13  4  0.00000000  0.17703915  0.25000000  1
  Si  Si14  4  0.00000000  0.19792212  0.75000000  1
  Si  Si15  4  0.00000000  0.23843984  0.75000000  1
  Si  Si16  4  0.00000000  0.25926819  0.25000000  1
  Si  Si17  4  0.00000000  0.30213721  0.25000000  1
  Si  Si18  4  0.00000000  0.32294319  0.75000000  1
  Si  Si19  4  0.00000000  0.36458851  0.75000000  1
  Si  Si20  4  0.00000000  0.38542143  0.25000000  1
  Si  Si21  4  0.00000000  0.42778299  0.25000000  1
  Si  Si22  4  0.00000000  0.44869718  0.75000000  1
  Si  Si23  4  0.00000000  0.48958668  0.75000000  1
  Mo  Mo24  16  0.24621322  0.31247944  0.00001608  1
  Mo  Mo25  16  0.24622160  0.37500617  0.00005119  1
  Mo  Mo26  16  0.24790635  0.43753160  0.00014538  1
  Mo  Mo27  8  0.24345601  0.28120240  0.25000000  1
  Mo  Mo28  8  0.24577746  0.40627553  0.25000000  1
  Mo  Mo29  8  0.24628084  0.34374740  0.75000000  1
  Mo  Mo30  8  0.24954155  0.50000000  0.00000000  1
  Mo  Mo31  8  0.24992860  0.46875004  0.75000000  1
  Mo  Mo32  8  0.25000000  0.25000000  0.00000000  1
