# generated using pymatgen
data_U(FeSi)6
_symmetry_space_group_name_H-M   Cmmm
_cell_length_a   4.77523687
_cell_length_b   41.44095029
_cell_length_c   7.94144007
_cell_angle_alpha   90.00000000
_cell_angle_beta   90.00000000
_cell_angle_gamma   90.00000000
_symmetry_Int_Tables_number   65
_chemical_formula_structural   U(FeSi)6
_chemical_formula_sum   'U10 Fe60 Si60'
_cell_volume   1571.53438407
_cell_formula_units_Z   10
loop_
 _symmetry_equiv_pos_site_id
 _symmetry_equiv_pos_as_xyz
  1  'x, y, z'
  2  '-x, -y, -z'
  3  '-x, -y, z'
  4  'x, y, -z'
  5  'x, -y, -z'
  6  '-x, y, z'
  7  '-x, y, -z'
  8  'x, -y, z'
  9  'x+1/2, y+1/2, z'
  10  '-x+1/2, -y+1/2, -z'
  11  '-x+1/2, -y+1/2, z'
  12  'x+1/2, y+1/2, -z'
  13  'x+1/2, -y+1/2, -z'
  14  '-x+1/2, y+1/2, z'
  15  '-x+1/2, y+1/2, -z'
  16  'x+1/2, -y+1/2, z'
loop_
 _atom_site_type_symbol
 _atom_site_label
 _atom_site_symmetry_multiplicity
 _atom_site_fract_x
 _atom_site_fract_y
 _atom_site_fract_z
 _atom_site_occupancy
  U  U0  4  0.00000000  0.10322963  0.50000000  1
  U  U1  4  0.00000000  0.30265483  0.00000000  1
  U  U2  2  0.00000000  0.50000000  0.50000000  1
  Fe  Fe3  16  0.24891766  0.45004349  0.24754011  1
  Fe  Fe4  16  0.24971136  0.15002892  0.24998083  1
  Fe  Fe5  8  0.00000000  0.19997300  0.24525637  1
  Fe  Fe6  8  0.00000000  0.39977318  0.25384880  1
  Fe  Fe7  8  0.25000000  0.25000000  0.25276649  1
  Fe  Fe8  4  0.00000000  0.00000000  0.25021259  1
  Si  Si9  8  0.00000000  0.09960909  0.14649895  1
  Si  Si10  8  0.00000000  0.29966401  0.35332362  1
  Si  Si11  4  0.00000000  0.03308151  0.00000000  1
  Si  Si12  4  0.00000000  0.03494564  0.50000000  1
  Si  Si13  4  0.00000000  0.16063112  0.00000000  1
  Si  Si14  4  0.00000000  0.17197906  0.50000000  1
  Si  Si15  4  0.00000000  0.23383767  0.50000000  1
  Si  Si16  4  0.00000000  0.23396078  0.00000000  1
  Si  Si17  4  0.00000000  0.36045867  0.50000000  1
  Si  Si18  4  0.00000000  0.37173094  0.00000000  1
  Si  Si19  4  0.00000000  0.43248982  0.50000000  1
  Si  Si20  4  0.00000000  0.43393536  0.00000000  1
  Si  Si21  4  0.00000000  0.50000000  0.14658646  1
