# generated using pymatgen
data_U(CoPb)6
_symmetry_space_group_name_H-M   Cmcm
_cell_length_a   9.18980338
_cell_length_b   37.60369919
_cell_length_c   5.42863268
_cell_angle_alpha   90.00000000
_cell_angle_beta   90.00000000
_cell_angle_gamma   90.00000000
_symmetry_Int_Tables_number   63
_chemical_formula_structural   U(CoPb)6
_chemical_formula_sum   'U8 Co48 Pb48'
_cell_volume   1875.97586122
_cell_formula_units_Z   8
loop_
 _symmetry_equiv_pos_site_id
 _symmetry_equiv_pos_as_xyz
  1  'x, y, z'
  2  '-x, -y, -z'
  3  '-x, -y, z+1/2'
  4  'x, y, -z+1/2'
  5  'x, -y, -z'
  6  '-x, y, z'
  7  '-x, y, -z+1/2'
  8  'x, -y, z+1/2'
  9  'x+1/2, y+1/2, z'
  10  '-x+1/2, -y+1/2, -z'
  11  '-x+1/2, -y+1/2, z+1/2'
  12  'x+1/2, y+1/2, -z+1/2'
  13  'x+1/2, -y+1/2, -z'
  14  '-x+1/2, y+1/2, z'
  15  '-x+1/2, y+1/2, -z+1/2'
  16  'x+1/2, -y+1/2, z+1/2'
loop_
 _atom_site_type_symbol
 _atom_site_label
 _atom_site_symmetry_multiplicity
 _atom_site_fract_x
 _atom_site_fract_y
 _atom_site_fract_z
 _atom_site_occupancy
  U  U0  4  0.00000000  0.06404343  0.25000000  1
  U  U1  4  0.00000000  0.19066125  0.75000000  1
  Co  Co2  16  0.24238824  0.12446228  0.00467381  1
  Co  Co3  8  0.24112868  0.06272988  0.75000000  1
  Co  Co4  8  0.24130190  0.18821804  0.25000000  1
  Co  Co5  8  0.24156798  0.00000000  0.00000000  1
  Co  Co6  8  0.25000000  0.25000000  0.00000000  1
  Pb  Pb7  8  0.17893483  0.43893206  0.75000000  1
  Pb  Pb8  8  0.17947887  0.31370333  0.25000000  1
  Pb  Pb9  4  0.00000000  0.02098236  0.75000000  1
  Pb  Pb10  4  0.00000000  0.10560785  0.75000000  1
  Pb  Pb11  4  0.00000000  0.14748841  0.25000000  1
  Pb  Pb12  4  0.00000000  0.23135641  0.25000000  1
  Pb  Pb13  4  0.00000000  0.27310066  0.75000000  1
  Pb  Pb14  4  0.00000000  0.35569573  0.75000000  1
  Pb  Pb15  4  0.00000000  0.39639682  0.25000000  1
  Pb  Pb16  4  0.00000000  0.47892756  0.25000000  1
