# generated using pymatgen
data_U(RuPb)6
_symmetry_space_group_name_H-M   Cmcm
_cell_length_a   9.63143114
_cell_length_b   39.33920467
_cell_length_c   5.53456238
_cell_angle_alpha   90.00000000
_cell_angle_beta   90.00000000
_cell_angle_gamma   90.00000000
_symmetry_Int_Tables_number   63
_chemical_formula_structural   U(RuPb)6
_chemical_formula_sum   'U8 Ru48 Pb48'
_cell_volume   2097.00606297
_cell_formula_units_Z   8
loop_
 _symmetry_equiv_pos_site_id
 _symmetry_equiv_pos_as_xyz
  1  'x, y, z'
  2  '-x, -y, -z'
  3  '-x, -y, z+1/2'
  4  'x, y, -z+1/2'
  5  'x, -y, -z'
  6  '-x, y, z'
  7  '-x, y, -z+1/2'
  8  'x, -y, z+1/2'
  9  'x+1/2, y+1/2, z'
  10  '-x+1/2, -y+1/2, -z'
  11  '-x+1/2, -y+1/2, z+1/2'
  12  'x+1/2, y+1/2, -z+1/2'
  13  'x+1/2, -y+1/2, -z'
  14  '-x+1/2, y+1/2, z'
  15  '-x+1/2, y+1/2, -z+1/2'
  16  'x+1/2, -y+1/2, z+1/2'
loop_
 _atom_site_type_symbol
 _atom_site_label
 _atom_site_symmetry_multiplicity
 _atom_site_fract_x
 _atom_site_fract_y
 _atom_site_fract_z
 _atom_site_occupancy
  U  U0  4  0.00000000  0.30542987  0.25000000  1
  U  U1  4  0.00000000  0.43105699  0.75000000  1
  Ru  Ru2  16  0.23854621  0.37808059  0.53053525  1
  Ru  Ru3  8  0.23372715  0.43834608  0.25000000  1
  Ru  Ru4  8  0.23551096  0.30721518  0.75000000  1
  Ru  Ru5  8  0.24250630  0.50000000  0.00000000  1
  Ru  Ru6  8  0.25000000  0.25000000  0.00000000  1
  Pb  Pb7  8  0.17744208  0.06011582  0.25000000  1
  Pb  Pb8  8  0.18191344  0.18443829  0.75000000  1
  Pb  Pb9  4  0.00000000  0.02173132  0.75000000  1
  Pb  Pb10  4  0.00000000  0.10305287  0.75000000  1
  Pb  Pb11  4  0.00000000  0.14428699  0.25000000  1
  Pb  Pb12  4  0.00000000  0.22446988  0.25000000  1
  Pb  Pb13  4  0.00000000  0.26673456  0.75000000  1
  Pb  Pb14  4  0.00000000  0.34955861  0.75000000  1
  Pb  Pb15  4  0.00000000  0.39324109  0.25000000  1
  Pb  Pb16  4  0.00000000  0.47950849  0.25000000  1
