# generated using pymatgen
data_U(TaGe)6
_symmetry_space_group_name_H-M   Cmcm
_cell_length_a   8.56483010
_cell_length_b   79.78353517
_cell_length_c   5.75833287
_cell_angle_alpha   90.00000000
_cell_angle_beta   90.00000000
_cell_angle_gamma   90.00000000
_symmetry_Int_Tables_number   63
_chemical_formula_structural   U(TaGe)6
_chemical_formula_sum   'U16 Ta96 Ge96'
_cell_volume   3934.85555591
_cell_formula_units_Z   16
loop_
 _symmetry_equiv_pos_site_id
 _symmetry_equiv_pos_as_xyz
  1  'x, y, z'
  2  '-x, -y, -z'
  3  '-x, -y, z+1/2'
  4  'x, y, -z+1/2'
  5  'x, -y, -z'
  6  '-x, y, z'
  7  '-x, y, -z+1/2'
  8  'x, -y, z+1/2'
  9  'x+1/2, y+1/2, z'
  10  '-x+1/2, -y+1/2, -z'
  11  '-x+1/2, -y+1/2, z+1/2'
  12  'x+1/2, y+1/2, -z+1/2'
  13  'x+1/2, -y+1/2, -z'
  14  '-x+1/2, y+1/2, z'
  15  '-x+1/2, y+1/2, -z+1/2'
  16  'x+1/2, -y+1/2, z+1/2'
loop_
 _atom_site_type_symbol
 _atom_site_label
 _atom_site_symmetry_multiplicity
 _atom_site_fract_x
 _atom_site_fract_y
 _atom_site_fract_z
 _atom_site_occupancy
  U  U0  4  0.00000000  0.09394098  0.75000000  1
  U  U1  4  0.00000000  0.15624687  0.25000000  1
  U  U2  4  0.00000000  0.21840988  0.75000000  1
  U  U3  4  0.00000000  0.46885974  0.75000000  1
  Ta  Ta4  16  0.24532283  0.37500021  0.00013900  1
  Ta  Ta5  16  0.24556480  0.31247714  0.00023057  1
  Ta  Ta6  16  0.24891212  0.43751224  0.00009257  1
  Ta  Ta7  8  0.24144330  0.28120533  0.75000000  1
  Ta  Ta8  8  0.24400801  0.40625473  0.75000000  1
  Ta  Ta9  8  0.24503944  0.34374122  0.25000000  1
  Ta  Ta10  8  0.24621304  0.03123318  0.75000000  1
  Ta  Ta11  8  0.24805617  0.00000000  0.00000000  1
  Ta  Ta12  8  0.25000000  0.25000000  0.00000000  1
  Ge  Ge13  8  0.17166451  0.40626350  0.25000000  1
  Ge  Ge14  8  0.17189471  0.28117937  0.25000000  1
  Ge  Ge15  8  0.17202162  0.34374753  0.75000000  1
  Ge  Ge16  8  0.17364843  0.03134478  0.25000000  1
  Ge  Ge17  4  0.00000000  0.01034091  0.75000000  1
  Ge  Ge18  4  0.00000000  0.05342565  0.75000000  1
  Ge  Ge19  4  0.00000000  0.07422167  0.25000000  1
  Ge  Ge20  4  0.00000000  0.11464590  0.25000000  1
  Ge  Ge21  4  0.00000000  0.13547681  0.75000000  1
  Ge  Ge22  4  0.00000000  0.17700857  0.75000000  1
  Ge  Ge23  4  0.00000000  0.19792362  0.25000000  1
  Ge  Ge24  4  0.00000000  0.23797380  0.25000000  1
  Ge  Ge25  4  0.00000000  0.25885838  0.75000000  1
  Ge  Ge26  4  0.00000000  0.30221078  0.75000000  1
  Ge  Ge27  4  0.00000000  0.32286460  0.25000000  1
  Ge  Ge28  4  0.00000000  0.36461188  0.25000000  1
  Ge  Ge29  4  0.00000000  0.38539051  0.75000000  1
  Ge  Ge30  4  0.00000000  0.42823438  0.75000000  1
  Ge  Ge31  4  0.00000000  0.44907266  0.25000000  1
  Ge  Ge32  4  0.00000000  0.48957572  0.25000000  1
