# generated using pymatgen
data_U(SiTc)6
_symmetry_space_group_name_H-M   Immm
_cell_length_a   5.32540657
_cell_length_b   7.89856963
_cell_length_c   27.74401259
_cell_angle_alpha   90.00000000
_cell_angle_beta   90.00000000
_cell_angle_gamma   90.00000000
_symmetry_Int_Tables_number   71
_chemical_formula_structural   U(SiTc)6
_chemical_formula_sum   'U6 Si36 Tc36'
_cell_volume   1166.99902611
_cell_formula_units_Z   6
loop_
 _symmetry_equiv_pos_site_id
 _symmetry_equiv_pos_as_xyz
  1  'x, y, z'
  2  '-x, -y, -z'
  3  '-x, -y, z'
  4  'x, y, -z'
  5  'x, -y, -z'
  6  '-x, y, z'
  7  '-x, y, -z'
  8  'x, -y, z'
  9  'x+1/2, y+1/2, z+1/2'
  10  '-x+1/2, -y+1/2, -z+1/2'
  11  '-x+1/2, -y+1/2, z+1/2'
  12  'x+1/2, y+1/2, -z+1/2'
  13  'x+1/2, -y+1/2, -z+1/2'
  14  '-x+1/2, y+1/2, z+1/2'
  15  '-x+1/2, y+1/2, -z+1/2'
  16  'x+1/2, -y+1/2, z+1/2'
loop_
 _atom_site_type_symbol
 _atom_site_label
 _atom_site_symmetry_multiplicity
 _atom_site_fract_x
 _atom_site_fract_y
 _atom_site_fract_z
 _atom_site_occupancy
  U  U0  4  0.00000000  0.50000000  0.33307271  1
  U  U1  2  0.00000000  0.00000000  0.00000000  1
  Tc  Tc2  16  0.24994837  0.25276732  0.08328897  1
  Si  Si3  8  0.00000000  0.15635097  0.66618943  1
  Tc  Tc4  8  0.00000000  0.25790059  0.83346526  1
  Tc  Tc5  8  0.25000000  0.25000000  0.25000000  1
  Si  Si6  4  0.00000000  0.00000000  0.11191537  1
  Si  Si7  4  0.00000000  0.00000000  0.22065926  1
  Si  Si8  4  0.00000000  0.00000000  0.44400356  1
  Tc  Tc9  4  0.00000000  0.24571720  0.50000000  1
  Si  Si10  4  0.00000000  0.34399402  0.00000000  1
  Si  Si11  4  0.00000000  0.50000000  0.11049714  1
  Si  Si12  4  0.00000000  0.50000000  0.22320706  1
  Si  Si13  4  0.00000000  0.50000000  0.44437846  1
