# generated using pymatgen
data_U(NiGe)6
_symmetry_space_group_name_H-M   C2/m
_cell_length_a   5.16077162
_cell_length_b   43.87638567
_cell_length_c   7.96992430
_cell_angle_alpha   90.00000000
_cell_angle_beta   96.15265291
_cell_angle_gamma   90.00000000
_symmetry_Int_Tables_number   12
_chemical_formula_structural   U(NiGe)6
_chemical_formula_sum   'U10 Ni60 Ge60'
_cell_volume   1794.28264876
_cell_formula_units_Z   10
loop_
 _symmetry_equiv_pos_site_id
 _symmetry_equiv_pos_as_xyz
  1  'x, y, z'
  2  '-x, -y, -z'
  3  '-x, y, -z'
  4  'x, -y, z'
  5  'x+1/2, y+1/2, z'
  6  '-x+1/2, -y+1/2, -z'
  7  '-x+1/2, y+1/2, -z'
  8  'x+1/2, -y+1/2, z'
loop_
 _atom_site_type_symbol
 _atom_site_label
 _atom_site_symmetry_multiplicity
 _atom_site_fract_x
 _atom_site_fract_y
 _atom_site_fract_z
 _atom_site_occupancy
  U  U0  4  0.00000000  0.19946618  0.00000000  1
  U  U1  4  0.00000000  0.39938923  0.50000000  1
  U  U2  2  0.00000000  0.00000000  0.50000000  1
  Ni  Ni3  8  0.00339990  0.30002653  0.75240830  1
  Ni  Ni4  8  0.00341657  0.10003432  0.25235555  1
  Ni  Ni5  8  0.24827474  0.95024855  0.74925348  1
  Ni  Ni6  8  0.24841727  0.24975295  0.24920069  1
  Ni  Ni7  8  0.24868419  0.44976627  0.74922273  1
  Ni  Ni8  8  0.24996960  0.34999966  0.24999608  1
  Ni  Ni9  8  0.24999092  0.34999835  0.75000201  1
  Ni  Ni10  4  0.00338786  0.50000000  0.25087020  1
  Ge  Ge11  8  0.00260041  0.39999234  0.15410184  1
  Ge  Ge12  8  0.00261991  0.80001178  0.65412201  1
  Ge  Ge13  4  0.00000000  0.06685464  0.00000000  1
  Ge  Ge14  4  0.00000000  0.06720409  0.50000000  1
  Ge  Ge15  4  0.00000000  0.13196789  0.00000000  1
  Ge  Ge16  4  0.00000000  0.13435354  0.50000000  1
  Ge  Ge17  4  0.00000000  0.26689072  0.50000000  1
  Ge  Ge18  4  0.00000000  0.26703795  0.00000000  1
  Ge  Ge19  4  0.00000000  0.33196237  0.50000000  1
  Ge  Ge20  4  0.00000000  0.33434195  0.00000000  1
  Ge  Ge21  4  0.00000000  0.46685952  0.00000000  1
  Ge  Ge22  4  0.00000000  0.46689375  0.50000000  1
  Ge  Ge23  4  0.00252781  0.00000000  0.15419789  1
