# generated using pymatgen
data_U(NiPb)6
_symmetry_space_group_name_H-M   Immm
_cell_length_a   5.51346469
_cell_length_b   9.43690874
_cell_length_c   28.60537038
_cell_angle_alpha   90.00000000
_cell_angle_beta   90.00000000
_cell_angle_gamma   90.00000000
_symmetry_Int_Tables_number   71
_chemical_formula_structural   U(NiPb)6
_chemical_formula_sum   'U6 Ni36 Pb36'
_cell_volume   1488.33922809
_cell_formula_units_Z   6
loop_
 _symmetry_equiv_pos_site_id
 _symmetry_equiv_pos_as_xyz
  1  'x, y, z'
  2  '-x, -y, -z'
  3  '-x, -y, z'
  4  'x, y, -z'
  5  'x, -y, -z'
  6  '-x, y, z'
  7  '-x, y, -z'
  8  'x, -y, z'
  9  'x+1/2, y+1/2, z+1/2'
  10  '-x+1/2, -y+1/2, -z+1/2'
  11  '-x+1/2, -y+1/2, z+1/2'
  12  'x+1/2, y+1/2, -z+1/2'
  13  'x+1/2, -y+1/2, -z+1/2'
  14  '-x+1/2, y+1/2, z+1/2'
  15  '-x+1/2, y+1/2, -z+1/2'
  16  'x+1/2, -y+1/2, z+1/2'
loop_
 _atom_site_type_symbol
 _atom_site_label
 _atom_site_symmetry_multiplicity
 _atom_site_fract_x
 _atom_site_fract_y
 _atom_site_fract_z
 _atom_site_occupancy
  U  U0  4  0.00000000  0.50000000  0.33209255  1
  U  U1  2  0.00000000  0.00000000  0.00000000  1
  Ni  Ni2  16  0.24920001  0.23966927  0.08297550  1
  Ni  Ni3  8  0.00000000  0.24182442  0.83334097  1
  Ni  Ni4  8  0.25000000  0.25000000  0.25000000  1
  Ni  Ni5  4  0.00000000  0.26061873  0.50000000  1
  Pb  Pb6  8  0.00000000  0.17727743  0.66596248  1
  Pb  Pb7  4  0.00000000  0.00000000  0.11201277  1
  Pb  Pb8  4  0.00000000  0.00000000  0.22443052  1
  Pb  Pb9  4  0.00000000  0.00000000  0.44453783  1
  Pb  Pb10  4  0.00000000  0.32343550  0.00000000  1
  Pb  Pb11  4  0.00000000  0.50000000  0.11014018  1
  Pb  Pb12  4  0.00000000  0.50000000  0.21999702  1
  Pb  Pb13  4  0.00000000  0.50000000  0.44416328  1
