# generated using pymatgen
data_U(ZnSn)6
_symmetry_space_group_name_H-M   P-1
_cell_length_a   5.94555646
_cell_length_b   10.82258396
_cell_length_c   23.38762765
_cell_angle_alpha   99.95786987
_cell_angle_beta   91.56855996
_cell_angle_gamma   98.81998574
_symmetry_Int_Tables_number   2
_chemical_formula_structural   U(ZnSn)6
_chemical_formula_sum   'U5 Zn30 Sn30'
_cell_volume   1462.46154004
_cell_formula_units_Z   5
loop_
 _symmetry_equiv_pos_site_id
 _symmetry_equiv_pos_as_xyz
  1  'x, y, z'
  2  '-x, -y, -z'
loop_
 _atom_site_type_symbol
 _atom_site_label
 _atom_site_symmetry_multiplicity
 _atom_site_fract_x
 _atom_site_fract_y
 _atom_site_fract_z
 _atom_site_occupancy
  U  U0  2  0.09655470  0.49795106  0.80059084  1
  U  U1  2  0.20301093  0.00188165  0.59928470  1
  U  U2  1  0.50000000  0.50000000  0.00000000  1
  Zn  Zn3  2  0.04802727  0.75268922  0.40012762  1
  Zn  Zn4  2  0.06559726  0.74997067  0.89668869  1
  Zn  Zn5  2  0.11419344  0.27911550  0.89501771  1
  Zn  Zn6  2  0.15002901  0.24996447  0.69996587  1
  Zn  Zn7  2  0.15004790  0.74997516  0.70006723  1
  Zn  Zn8  2  0.15284656  0.25640169  0.20144988  1
  Zn  Zn9  2  0.18653820  0.22063660  0.50517984  1
  Zn  Zn10  2  0.23409600  0.75005477  0.50330852  1
  Zn  Zn11  2  0.25882202  0.74850392  0.99878032  1
  Zn  Zn12  2  0.34789862  0.25276875  0.80012697  1
  Zn  Zn13  2  0.34981017  0.74995802  0.29997245  1
  Zn  Zn14  2  0.34997681  0.24999330  0.29999823  1
  Zn  Zn15  2  0.45321155  0.75660424  0.60142908  1
  Zn  Zn16  2  0.46577964  0.74971629  0.09706567  1
  Zn  Zn17  2  0.49013937  0.72247423  0.90562733  1
  Sn  Sn18  2  0.00579799  0.51109940  0.93829311  1
  Sn  Sn19  2  0.05040383  0.98559732  0.86488481  1
  Sn  Sn20  2  0.08467610  0.29691231  0.40238451  1
  Sn  Sn21  2  0.13150992  0.01451620  0.73728639  1
  Sn  Sn22  2  0.16850322  0.48546305  0.66264625  1
  Sn  Sn23  2  0.18667210  0.80016907  0.19908718  1
  Sn  Sn24  2  0.21639508  0.20082179  0.99834771  1
  Sn  Sn25  2  0.25100889  0.51481947  0.53514144  1
  Sn  Sn26  2  0.29400223  0.98977375  0.46136524  1
  Sn  Sn27  2  0.29838308  0.00647385  0.33766715  1
  Sn  Sn28  2  0.38462872  0.79695561  0.80264483  1
  Sn  Sn29  2  0.40182456  0.49353336  0.26223820  1
  Sn  Sn30  2  0.40657730  0.51021050  0.13836642  1
  Sn  Sn31  2  0.45269763  0.98667968  0.06504708  1
  Sn  Sn32  2  0.48656943  0.30021785  0.59927821  1
