# generated using pymatgen
data_U(NbSn)6
_symmetry_space_group_name_H-M   Cmmm
_cell_length_a   5.70988476
_cell_length_b   49.49682396
_cell_length_c   9.63828323
_cell_angle_alpha   90.00000000
_cell_angle_beta   90.00000000
_cell_angle_gamma   90.00000000
_symmetry_Int_Tables_number   65
_chemical_formula_structural   U(NbSn)6
_chemical_formula_sum   'U10 Nb60 Sn60'
_cell_volume   2723.98279503
_cell_formula_units_Z   10
loop_
 _symmetry_equiv_pos_site_id
 _symmetry_equiv_pos_as_xyz
  1  'x, y, z'
  2  '-x, -y, -z'
  3  '-x, -y, z'
  4  'x, y, -z'
  5  'x, -y, -z'
  6  '-x, y, z'
  7  '-x, y, -z'
  8  'x, -y, z'
  9  'x+1/2, y+1/2, z'
  10  '-x+1/2, -y+1/2, -z'
  11  '-x+1/2, -y+1/2, z'
  12  'x+1/2, y+1/2, -z'
  13  'x+1/2, -y+1/2, -z'
  14  '-x+1/2, y+1/2, z'
  15  '-x+1/2, y+1/2, -z'
  16  'x+1/2, -y+1/2, z'
loop_
 _atom_site_type_symbol
 _atom_site_label
 _atom_site_symmetry_multiplicity
 _atom_site_fract_x
 _atom_site_fract_y
 _atom_site_fract_z
 _atom_site_occupancy
  U  U0  4  0.00000000  0.19983715  0.50000000  1
  U  U1  4  0.00000000  0.39983537  0.00000000  1
  U  U2  2  0.00000000  0.00000000  0.00000000  1
  Nb  Nb3  16  0.24998462  0.05000790  0.24942728  1
  Nb  Nb4  16  0.24999889  0.14999992  0.24999969  1
  Nb  Nb5  8  0.00000000  0.10002387  0.24901924  1
  Nb  Nb6  8  0.00000000  0.30002265  0.25098156  1
  Nb  Nb7  8  0.25000000  0.25000000  0.25054166  1
  Nb  Nb8  4  0.00000000  0.50000000  0.24940585  1
  Sn  Sn9  8  0.00000000  0.20000499  0.16689790  1
  Sn  Sn10  8  0.00000000  0.40000304  0.33309578  1
  Sn  Sn11  4  0.00000000  0.00000000  0.33271642  1
  Sn  Sn12  4  0.00000000  0.06691433  0.00000000  1
  Sn  Sn13  4  0.00000000  0.06693980  0.50000000  1
  Sn  Sn14  4  0.00000000  0.13313656  0.00000000  1
  Sn  Sn15  4  0.00000000  0.13314630  0.50000000  1
  Sn  Sn16  4  0.00000000  0.26691487  0.50000000  1
  Sn  Sn17  4  0.00000000  0.26694019  0.00000000  1
  Sn  Sn18  4  0.00000000  0.33313640  0.50000000  1
  Sn  Sn19  4  0.00000000  0.33314566  0.00000000  1
  Sn  Sn20  4  0.00000000  0.46687426  0.00000000  1
  Sn  Sn21  4  0.00000000  0.46694618  0.50000000  1
