# generated using pymatgen
data_U(AgPb)6
_symmetry_space_group_name_H-M   Cmcm
_cell_length_a   10.46058215
_cell_length_b   41.15600467
_cell_length_c   5.93462779
_cell_angle_alpha   90.00000000
_cell_angle_beta   90.00000000
_cell_angle_gamma   90.00000000
_symmetry_Int_Tables_number   63
_chemical_formula_structural   U(AgPb)6
_chemical_formula_sum   'U8 Ag48 Pb48'
_cell_volume   2554.95084257
_cell_formula_units_Z   8
loop_
 _symmetry_equiv_pos_site_id
 _symmetry_equiv_pos_as_xyz
  1  'x, y, z'
  2  '-x, -y, -z'
  3  '-x, -y, z+1/2'
  4  'x, y, -z+1/2'
  5  'x, -y, -z'
  6  '-x, y, z'
  7  '-x, y, -z+1/2'
  8  'x, -y, z+1/2'
  9  'x+1/2, y+1/2, z'
  10  '-x+1/2, -y+1/2, -z'
  11  '-x+1/2, -y+1/2, z+1/2'
  12  'x+1/2, y+1/2, -z+1/2'
  13  'x+1/2, -y+1/2, -z'
  14  '-x+1/2, y+1/2, z'
  15  '-x+1/2, y+1/2, -z+1/2'
  16  'x+1/2, -y+1/2, z+1/2'
loop_
 _atom_site_type_symbol
 _atom_site_label
 _atom_site_symmetry_multiplicity
 _atom_site_fract_x
 _atom_site_fract_y
 _atom_site_fract_z
 _atom_site_occupancy
  U  U0  4  0.00000000  0.31105625  0.25000000  1
  U  U1  4  0.00000000  0.43693363  0.75000000  1
  Ag  Ag2  16  0.24605307  0.37530324  0.50228122  1
  Ag  Ag3  8  0.24185063  0.50000000  0.00000000  1
  Ag  Ag4  8  0.24349259  0.43730224  0.25000000  1
  Ag  Ag5  8  0.24372917  0.31221873  0.75000000  1
  Ag  Ag6  8  0.25000000  0.25000000  0.00000000  1
  Pb  Pb7  8  0.17804204  0.18681426  0.75000000  1
  Pb  Pb8  8  0.18041378  0.06133478  0.25000000  1
  Pb  Pb9  4  0.00000000  0.02154820  0.75000000  1
  Pb  Pb10  4  0.00000000  0.10297335  0.75000000  1
  Pb  Pb11  4  0.00000000  0.14514086  0.25000000  1
  Pb  Pb12  4  0.00000000  0.22843735  0.25000000  1
  Pb  Pb13  4  0.00000000  0.27129288  0.75000000  1
  Pb  Pb14  4  0.00000000  0.35330669  0.75000000  1
  Pb  Pb15  4  0.00000000  0.39460657  0.25000000  1
  Pb  Pb16  4  0.00000000  0.47870707  0.25000000  1
