# generated using pymatgen
data_Zr6USn6
_symmetry_space_group_name_H-M   Cmcm
_cell_length_a   9.90365923
_cell_length_b   21.13482915
_cell_length_c   6.08255594
_cell_angle_alpha   90.00000000
_cell_angle_beta   90.00000000
_cell_angle_gamma   90.00000000
_symmetry_Int_Tables_number   63
_chemical_formula_structural   Zr6USn6
_chemical_formula_sum   'Zr24 U4 Sn24'
_cell_volume   1273.15283627
_cell_formula_units_Z   4
loop_
 _symmetry_equiv_pos_site_id
 _symmetry_equiv_pos_as_xyz
  1  'x, y, z'
  2  '-x, -y, -z'
  3  '-x, -y, z+1/2'
  4  'x, y, -z+1/2'
  5  'x, -y, -z'
  6  '-x, y, z'
  7  '-x, y, -z+1/2'
  8  'x, -y, z+1/2'
  9  'x+1/2, y+1/2, z'
  10  '-x+1/2, -y+1/2, -z'
  11  '-x+1/2, -y+1/2, z+1/2'
  12  'x+1/2, y+1/2, -z+1/2'
  13  'x+1/2, -y+1/2, -z'
  14  '-x+1/2, y+1/2, z'
  15  '-x+1/2, y+1/2, -z+1/2'
  16  'x+1/2, -y+1/2, z+1/2'
loop_
 _atom_site_type_symbol
 _atom_site_label
 _atom_site_symmetry_multiplicity
 _atom_site_fract_x
 _atom_site_fract_y
 _atom_site_fract_z
 _atom_site_occupancy
  Zr  Zr0  8  0.24614333  0.50000000  0.00000000  1
  Zr  Zr1  8  0.24978001  0.37535937  0.75000000  1
  Zr  Zr2  8  0.25000000  0.25000000  0.00000000  1
  U  U3  4  0.00000000  0.37613220  0.25000000  1
  Sn  Sn4  8  0.18848379  0.87489406  0.25000000  1
  Sn  Sn5  4  0.00000000  0.04065531  0.25000000  1
  Sn  Sn6  4  0.00000000  0.21565303  0.25000000  1
  Sn  Sn7  4  0.00000000  0.29776265  0.75000000  1
  Sn  Sn8  4  0.00000000  0.45777971  0.75000000  1
