# generated using pymatgen
data_U(MnSi)6
_symmetry_space_group_name_H-M   Cmmm
_cell_length_a   4.83625564
_cell_length_b   42.43860858
_cell_length_c   7.98664958
_cell_angle_alpha   90.00000000
_cell_angle_beta   90.00000000
_cell_angle_gamma   90.00000000
_symmetry_Int_Tables_number   65
_chemical_formula_structural   U(MnSi)6
_chemical_formula_sum   'U10 Mn60 Si60'
_cell_volume   1639.21158875
_cell_formula_units_Z   10
loop_
 _symmetry_equiv_pos_site_id
 _symmetry_equiv_pos_as_xyz
  1  'x, y, z'
  2  '-x, -y, -z'
  3  '-x, -y, z'
  4  'x, y, -z'
  5  'x, -y, -z'
  6  '-x, y, z'
  7  '-x, y, -z'
  8  'x, -y, z'
  9  'x+1/2, y+1/2, z'
  10  '-x+1/2, -y+1/2, -z'
  11  '-x+1/2, -y+1/2, z'
  12  'x+1/2, y+1/2, -z'
  13  'x+1/2, -y+1/2, -z'
  14  '-x+1/2, y+1/2, z'
  15  '-x+1/2, y+1/2, -z'
  16  'x+1/2, -y+1/2, z'
loop_
 _atom_site_type_symbol
 _atom_site_label
 _atom_site_symmetry_multiplicity
 _atom_site_fract_x
 _atom_site_fract_y
 _atom_site_fract_z
 _atom_site_occupancy
  U  U0  4  0.00000000  0.10235065  0.50000000  1
  U  U1  4  0.00000000  0.30245134  0.00000000  1
  U  U2  2  0.00000000  0.50000000  0.50000000  1
  Mn  Mn3  16  0.24872648  0.45005610  0.24696266  1
  Mn  Mn4  16  0.24975964  0.14999197  0.25007392  1
  Mn  Mn5  8  0.00000000  0.19993738  0.24389408  1
  Mn  Mn6  8  0.00000000  0.39977846  0.25536036  1
  Mn  Mn7  8  0.25000000  0.25000000  0.25341640  1
  Mn  Mn8  4  0.00000000  0.00000000  0.24969509  1
  Si  Si9  8  0.00000000  0.09932472  0.14911956  1
  Si  Si10  8  0.00000000  0.29935537  0.35084835  1
  Si  Si11  4  0.00000000  0.03296381  0.00000000  1
  Si  Si12  4  0.00000000  0.03460464  0.50000000  1
  Si  Si13  4  0.00000000  0.16165590  0.00000000  1
  Si  Si14  4  0.00000000  0.17031001  0.50000000  1
  Si  Si15  4  0.00000000  0.23292537  0.50000000  1
  Si  Si16  4  0.00000000  0.23435012  0.00000000  1
  Si  Si17  4  0.00000000  0.36162707  0.50000000  1
  Si  Si18  4  0.00000000  0.37024547  0.00000000  1
  Si  Si19  4  0.00000000  0.43296596  0.00000000  1
  Si  Si20  4  0.00000000  0.43339809  0.50000000  1
  Si  Si21  4  0.00000000  0.50000000  0.14823290  1
