# generated using pymatgen
data_U(CuGe)6
_symmetry_space_group_name_H-M   Cmcm
_cell_length_a   8.51097520
_cell_length_b   72.87623829
_cell_length_c   5.25288079
_cell_angle_alpha   90.00000000
_cell_angle_beta   90.00000000
_cell_angle_gamma   90.00000000
_symmetry_Int_Tables_number   63
_chemical_formula_structural   U(CuGe)6
_chemical_formula_sum   'U16 Cu96 Ge96'
_cell_volume   3258.08804919
_cell_formula_units_Z   16
loop_
 _symmetry_equiv_pos_site_id
 _symmetry_equiv_pos_as_xyz
  1  'x, y, z'
  2  '-x, -y, -z'
  3  '-x, -y, z+1/2'
  4  'x, y, -z+1/2'
  5  'x, -y, -z'
  6  '-x, y, z'
  7  '-x, y, -z+1/2'
  8  'x, -y, z+1/2'
  9  'x+1/2, y+1/2, z'
  10  '-x+1/2, -y+1/2, -z'
  11  '-x+1/2, -y+1/2, z+1/2'
  12  'x+1/2, y+1/2, -z+1/2'
  13  'x+1/2, -y+1/2, -z'
  14  '-x+1/2, y+1/2, z'
  15  '-x+1/2, y+1/2, -z+1/2'
  16  'x+1/2, -y+1/2, z+1/2'
loop_
 _atom_site_type_symbol
 _atom_site_label
 _atom_site_symmetry_multiplicity
 _atom_site_fract_x
 _atom_site_fract_y
 _atom_site_fract_z
 _atom_site_occupancy
  U  U0  4  0.00000000  0.03145290  0.75000000  1
  U  U1  4  0.00000000  0.28117231  0.75000000  1
  U  U2  4  0.00000000  0.34376638  0.25000000  1
  U  U3  4  0.00000000  0.40664145  0.75000000  1
  Cu  Cu4  16  0.24555438  0.06252600  0.50098442  1
  Cu  Cu5  16  0.24592275  0.18748813  0.00013030  1
  Cu  Cu6  16  0.24609672  0.12503524  0.50005628  1
  Cu  Cu7  8  0.24440999  0.21868265  0.75000000  1
  Cu  Cu8  8  0.24541489  0.03128421  0.25000000  1
  Cu  Cu9  8  0.24566575  0.00000000  0.00000000  1
  Cu  Cu10  8  0.24581319  0.15624522  0.25000000  1
  Cu  Cu11  8  0.24609948  0.09387581  0.75000000  1
  Cu  Cu12  8  0.25000000  0.25000000  0.00000000  1
  Ge  Ge13  8  0.15081503  0.15624934  0.75000000  1
  Ge  Ge14  8  0.15082380  0.21861716  0.25000000  1
  Ge  Ge15  8  0.15124193  0.09413507  0.25000000  1
  Ge  Ge16  8  0.15131008  0.46895934  0.25000000  1
  Ge  Ge17  4  0.00000000  0.01056737  0.25000000  1
  Ge  Ge18  4  0.00000000  0.05180296  0.25000000  1
  Ge  Ge19  4  0.00000000  0.07255918  0.75000000  1
  Ge  Ge20  4  0.00000000  0.11456992  0.75000000  1
  Ge  Ge21  4  0.00000000  0.13538665  0.25000000  1
  Ge  Ge22  4  0.00000000  0.17717642  0.25000000  1
  Ge  Ge23  4  0.00000000  0.19799611  0.75000000  1
  Ge  Ge24  4  0.00000000  0.24024695  0.75000000  1
  Ge  Ge25  4  0.00000000  0.26091878  0.25000000  1
  Ge  Ge26  4  0.00000000  0.30198371  0.25000000  1
  Ge  Ge27  4  0.00000000  0.32292149  0.75000000  1
  Ge  Ge28  4  0.00000000  0.36466777  0.75000000  1
  Ge  Ge29  4  0.00000000  0.38558382  0.25000000  1
  Ge  Ge30  4  0.00000000  0.42715554  0.25000000  1
  Ge  Ge31  4  0.00000000  0.44784639  0.75000000  1
  Ge  Ge32  4  0.00000000  0.48962360  0.75000000  1
