# generated using pymatgen
data_U(OsPb)6
_symmetry_space_group_name_H-M   Cmmm
_cell_length_a   5.10087255
_cell_length_b   52.02937607
_cell_length_c   10.17284377
_cell_angle_alpha   90.00000000
_cell_angle_beta   90.00000000
_cell_angle_gamma   90.00000000
_symmetry_Int_Tables_number   65
_chemical_formula_structural   U(OsPb)6
_chemical_formula_sum   'U10 Os60 Pb60'
_cell_volume   2699.82407232
_cell_formula_units_Z   10
loop_
 _symmetry_equiv_pos_site_id
 _symmetry_equiv_pos_as_xyz
  1  'x, y, z'
  2  '-x, -y, -z'
  3  '-x, -y, z'
  4  'x, y, -z'
  5  'x, -y, -z'
  6  '-x, y, z'
  7  '-x, y, -z'
  8  'x, -y, z'
  9  'x+1/2, y+1/2, z'
  10  '-x+1/2, -y+1/2, -z'
  11  '-x+1/2, -y+1/2, z'
  12  'x+1/2, y+1/2, -z'
  13  'x+1/2, -y+1/2, -z'
  14  '-x+1/2, y+1/2, z'
  15  '-x+1/2, y+1/2, -z'
  16  'x+1/2, -y+1/2, z'
loop_
 _atom_site_type_symbol
 _atom_site_label
 _atom_site_symmetry_multiplicity
 _atom_site_fract_x
 _atom_site_fract_y
 _atom_site_fract_z
 _atom_site_occupancy
  U  U0  4  0.00000000  0.19912331  0.00000000  1
  U  U1  4  0.00000000  0.39903685  0.50000000  1
  U  U2  2  0.00000000  0.00000000  0.50000000  1
  Os  Os3  16  0.24981853  0.04998302  0.25613406  1
  Os  Os4  16  0.24998902  0.35000708  0.25000255  1
  Os  Os5  8  0.00000000  0.10032129  0.28525043  1
  Os  Os6  8  0.00000000  0.30031552  0.21457831  1
  Os  Os7  8  0.25000000  0.25000000  0.24378152  1
  Os  Os8  4  0.00000000  0.50000000  0.28360423  1
  Pb  Pb9  8  0.00000000  0.20052659  0.32280666  1
  Pb  Pb10  8  0.00000000  0.40056414  0.17713709  1
  Pb  Pb11  4  0.00000000  0.00000000  0.17574321  1
  Pb  Pb12  4  0.00000000  0.06665096  0.50000000  1
  Pb  Pb13  4  0.00000000  0.06708907  0.00000000  1
  Pb  Pb14  4  0.00000000  0.13138654  0.00000000  1
  Pb  Pb15  4  0.00000000  0.13487298  0.50000000  1
  Pb  Pb16  4  0.00000000  0.26652628  0.00000000  1
  Pb  Pb17  4  0.00000000  0.26718668  0.50000000  1
  Pb  Pb18  4  0.00000000  0.33139573  0.50000000  1
  Pb  Pb19  4  0.00000000  0.33486184  0.00000000  1
  Pb  Pb20  4  0.00000000  0.46625551  0.50000000  1
  Pb  Pb21  4  0.00000000  0.46754876  0.00000000  1
