# generated using pymatgen
data_U(ReGe)6
_symmetry_space_group_name_H-M   Cmcm
_cell_length_a   8.82140029
_cell_length_b   73.96847583
_cell_length_c   5.32767919
_cell_angle_alpha   90.00000000
_cell_angle_beta   90.00000000
_cell_angle_gamma   90.00000000
_symmetry_Int_Tables_number   63
_chemical_formula_structural   U(ReGe)6
_chemical_formula_sum   'U16 Re96 Ge96'
_cell_volume   3476.34015866
_cell_formula_units_Z   16
loop_
 _symmetry_equiv_pos_site_id
 _symmetry_equiv_pos_as_xyz
  1  'x, y, z'
  2  '-x, -y, -z'
  3  '-x, -y, z+1/2'
  4  'x, y, -z+1/2'
  5  'x, -y, -z'
  6  '-x, y, z'
  7  '-x, y, -z+1/2'
  8  'x, -y, z+1/2'
  9  'x+1/2, y+1/2, z'
  10  '-x+1/2, -y+1/2, -z'
  11  '-x+1/2, -y+1/2, z+1/2'
  12  'x+1/2, y+1/2, -z+1/2'
  13  'x+1/2, -y+1/2, -z'
  14  '-x+1/2, y+1/2, z'
  15  '-x+1/2, y+1/2, -z+1/2'
  16  'x+1/2, -y+1/2, z+1/2'
loop_
 _atom_site_type_symbol
 _atom_site_label
 _atom_site_symmetry_multiplicity
 _atom_site_fract_x
 _atom_site_fract_y
 _atom_site_fract_z
 _atom_site_occupancy
  U  U0  4  0.00000000  0.09363289  0.25000000  1
  U  U1  4  0.00000000  0.15624449  0.75000000  1
  U  U2  4  0.00000000  0.21869869  0.25000000  1
  U  U3  4  0.00000000  0.46855999  0.25000000  1
  Re  Re4  16  0.24731211  0.37501590  0.00001684  1
  Re  Re5  16  0.24743405  0.31247426  0.00004302  1
  Re  Re6  16  0.24822015  0.43759470  0.00076308  1
  Re  Re7  8  0.24636037  0.46874560  0.75000000  1
  Re  Re8  8  0.24716205  0.28123648  0.25000000  1
  Re  Re9  8  0.24763891  0.34376518  0.75000000  1
  Re  Re10  8  0.24867605  0.50000000  0.00000000  1
  Re  Re11  8  0.24949257  0.40629421  0.25000000  1
  Re  Re12  8  0.25000000  0.25000000  0.00000000  1
  Ge  Ge13  8  0.16605210  0.34379752  0.25000000  1
  Ge  Ge14  8  0.16610848  0.40594939  0.75000000  1
  Ge  Ge15  8  0.16621259  0.28142041  0.75000000  1
  Ge  Ge16  8  0.16809673  0.03120786  0.75000000  1
  Ge  Ge17  4  0.00000000  0.01037681  0.25000000  1
  Ge  Ge18  4  0.00000000  0.05249090  0.25000000  1
  Ge  Ge19  4  0.00000000  0.07326168  0.75000000  1
  Ge  Ge20  4  0.00000000  0.11458150  0.75000000  1
  Ge  Ge21  4  0.00000000  0.13540237  0.25000000  1
  Ge  Ge22  4  0.00000000  0.17704235  0.25000000  1
  Ge  Ge23  4  0.00000000  0.19787987  0.75000000  1
  Ge  Ge24  4  0.00000000  0.23908920  0.75000000  1
  Ge  Ge25  4  0.00000000  0.25989090  0.25000000  1
  Ge  Ge26  4  0.00000000  0.30206787  0.25000000  1
  Ge  Ge27  4  0.00000000  0.32293205  0.75000000  1
  Ge  Ge28  4  0.00000000  0.36456231  0.75000000  1
  Ge  Ge29  4  0.00000000  0.38546423  0.25000000  1
  Ge  Ge30  4  0.00000000  0.42723774  0.25000000  1
  Ge  Ge31  4  0.00000000  0.44804756  0.75000000  1
  Ge  Ge32  4  0.00000000  0.48962910  0.75000000  1
