# generated using pymatgen
data_U(SnMo)6
_symmetry_space_group_name_H-M   Immm
_cell_length_a   5.59278776
_cell_length_b   9.56243416
_cell_length_c   29.06351913
_cell_angle_alpha   90.00000000
_cell_angle_beta   90.00000000
_cell_angle_gamma   90.00000000
_symmetry_Int_Tables_number   71
_chemical_formula_structural   U(SnMo)6
_chemical_formula_sum   'U6 Sn36 Mo36'
_cell_volume   1554.33632234
_cell_formula_units_Z   6
loop_
 _symmetry_equiv_pos_site_id
 _symmetry_equiv_pos_as_xyz
  1  'x, y, z'
  2  '-x, -y, -z'
  3  '-x, -y, z'
  4  'x, y, -z'
  5  'x, -y, -z'
  6  '-x, y, z'
  7  '-x, y, -z'
  8  'x, -y, z'
  9  'x+1/2, y+1/2, z+1/2'
  10  '-x+1/2, -y+1/2, -z+1/2'
  11  '-x+1/2, -y+1/2, z+1/2'
  12  'x+1/2, y+1/2, -z+1/2'
  13  'x+1/2, -y+1/2, -z+1/2'
  14  '-x+1/2, y+1/2, z+1/2'
  15  '-x+1/2, y+1/2, -z+1/2'
  16  'x+1/2, -y+1/2, z+1/2'
loop_
 _atom_site_type_symbol
 _atom_site_label
 _atom_site_symmetry_multiplicity
 _atom_site_fract_x
 _atom_site_fract_y
 _atom_site_fract_z
 _atom_site_occupancy
  U  U0  4  0.00000000  0.00000000  0.16629551  1
  U  U1  2  0.00000000  0.50000000  0.50000000  1
  Sn  Sn2  8  0.00000000  0.32421568  0.16662579  1
  Sn  Sn3  4  0.00000000  0.00000000  0.05534497  1
  Sn  Sn4  4  0.00000000  0.00000000  0.27641765  1
  Sn  Sn5  4  0.00000000  0.00000000  0.38937844  1
  Sn  Sn6  4  0.00000000  0.17656883  0.50000000  1
  Sn  Sn7  4  0.00000000  0.50000000  0.05590360  1
  Sn  Sn8  4  0.00000000  0.50000000  0.27926244  1
  Sn  Sn9  4  0.00000000  0.50000000  0.38873194  1
  Mo  Mo10  16  0.24990257  0.24928773  0.08330496  1
  Mo  Mo11  8  0.00000000  0.25007337  0.33341068  1
  Mo  Mo12  8  0.25000000  0.25000000  0.25000000  1
  Mo  Mo13  4  0.00000000  0.25026963  0.00000000  1
