# generated using pymatgen
data_U(FePb)6
_symmetry_space_group_name_H-M   Cmcm
_cell_length_a   9.62828835
_cell_length_b   37.91532718
_cell_length_c   5.41214326
_cell_angle_alpha   90.00000000
_cell_angle_beta   90.00000000
_cell_angle_gamma   90.00000000
_symmetry_Int_Tables_number   63
_chemical_formula_structural   U(FePb)6
_chemical_formula_sum   'U8 Fe48 Pb48'
_cell_volume   1975.75541232
_cell_formula_units_Z   8
loop_
 _symmetry_equiv_pos_site_id
 _symmetry_equiv_pos_as_xyz
  1  'x, y, z'
  2  '-x, -y, -z'
  3  '-x, -y, z+1/2'
  4  'x, y, -z+1/2'
  5  'x, -y, -z'
  6  '-x, y, z'
  7  '-x, y, -z+1/2'
  8  'x, -y, z+1/2'
  9  'x+1/2, y+1/2, z'
  10  '-x+1/2, -y+1/2, -z'
  11  '-x+1/2, -y+1/2, z+1/2'
  12  'x+1/2, y+1/2, -z+1/2'
  13  'x+1/2, -y+1/2, -z'
  14  '-x+1/2, y+1/2, z'
  15  '-x+1/2, y+1/2, -z+1/2'
  16  'x+1/2, -y+1/2, z+1/2'
loop_
 _atom_site_type_symbol
 _atom_site_label
 _atom_site_symmetry_multiplicity
 _atom_site_fract_x
 _atom_site_fract_y
 _atom_site_fract_z
 _atom_site_occupancy
  U  U0  4  0.00000000  0.30650756  0.75000000  1
  U  U1  4  0.00000000  0.43372541  0.25000000  1
  Fe  Fe2  16  0.24251344  0.37615215  0.02244059  1
  Fe  Fe3  8  0.23777308  0.30903311  0.25000000  1
  Fe  Fe4  8  0.24250839  0.43931232  0.75000000  1
  Fe  Fe5  8  0.24352544  0.50000000  0.00000000  1
  Fe  Fe6  8  0.25000000  0.25000000  0.00000000  1
  Pb  Pb7  8  0.18323151  0.06085313  0.75000000  1
  Pb  Pb8  8  0.18702534  0.18506394  0.25000000  1
  Pb  Pb9  4  0.00000000  0.02078226  0.25000000  1
  Pb  Pb10  4  0.00000000  0.10273522  0.25000000  1
  Pb  Pb11  4  0.00000000  0.14334654  0.75000000  1
  Pb  Pb12  4  0.00000000  0.22478164  0.75000000  1
  Pb  Pb13  4  0.00000000  0.26625315  0.25000000  1
  Pb  Pb14  4  0.00000000  0.35056793  0.25000000  1
  Pb  Pb15  4  0.00000000  0.39382385  0.75000000  1
  Pb  Pb16  4  0.00000000  0.47917960  0.75000000  1
