# generated using pymatgen
data_U(GeIr)6
_symmetry_space_group_name_H-M   Immm
_cell_length_a   5.43209853
_cell_length_b   8.23449402
_cell_length_c   28.21913284
_cell_angle_alpha   90.00000000
_cell_angle_beta   90.00000000
_cell_angle_gamma   90.00000000
_symmetry_Int_Tables_number   71
_chemical_formula_structural   U(GeIr)6
_chemical_formula_sum   'U6 Ge36 Ir36'
_cell_volume   1262.25825910
_cell_formula_units_Z   6
loop_
 _symmetry_equiv_pos_site_id
 _symmetry_equiv_pos_as_xyz
  1  'x, y, z'
  2  '-x, -y, -z'
  3  '-x, -y, z'
  4  'x, y, -z'
  5  'x, -y, -z'
  6  '-x, y, z'
  7  '-x, y, -z'
  8  'x, -y, z'
  9  'x+1/2, y+1/2, z+1/2'
  10  '-x+1/2, -y+1/2, -z+1/2'
  11  '-x+1/2, -y+1/2, z+1/2'
  12  'x+1/2, y+1/2, -z+1/2'
  13  'x+1/2, -y+1/2, -z+1/2'
  14  '-x+1/2, y+1/2, z+1/2'
  15  '-x+1/2, y+1/2, -z+1/2'
  16  'x+1/2, -y+1/2, z+1/2'
loop_
 _atom_site_type_symbol
 _atom_site_label
 _atom_site_symmetry_multiplicity
 _atom_site_fract_x
 _atom_site_fract_y
 _atom_site_fract_z
 _atom_site_occupancy
  U  U0  4  0.00000000  0.50000000  0.16745286  1
  U  U1  2  0.00000000  0.00000000  0.50000000  1
  Ge  Ge2  8  0.00000000  0.15972387  0.16661558  1
  Ge  Ge3  4  0.00000000  0.00000000  0.05583816  1
  Ge  Ge4  4  0.00000000  0.00000000  0.27873470  1
  Ge  Ge5  4  0.00000000  0.00000000  0.38835230  1
  Ge  Ge6  4  0.00000000  0.33953171  0.50000000  1
  Ge  Ge7  4  0.00000000  0.50000000  0.05575820  1
  Ge  Ge8  4  0.00000000  0.50000000  0.27706922  1
  Ge  Ge9  4  0.00000000  0.50000000  0.38935708  1
  Ir  Ir10  16  0.24994121  0.24835473  0.41671425  1
  Ir  Ir11  8  0.00000000  0.25106894  0.33340187  1
  Ir  Ir12  8  0.25000000  0.25000000  0.25000000  1
  Ir  Ir13  4  0.00000000  0.25091185  0.00000000  1
