# generated using pymatgen
data_U(SiRh)6
_symmetry_space_group_name_H-M   Cmcm
_cell_length_a   7.71764935
_cell_length_b   75.17502672
_cell_length_c   5.41983351
_cell_angle_alpha   90.00000000
_cell_angle_beta   90.00000000
_cell_angle_gamma   90.00000000
_symmetry_Int_Tables_number   63
_chemical_formula_structural   U(SiRh)6
_chemical_formula_sum   'U16 Si96 Rh96'
_cell_volume   3144.44917459
_cell_formula_units_Z   16
loop_
 _symmetry_equiv_pos_site_id
 _symmetry_equiv_pos_as_xyz
  1  'x, y, z'
  2  '-x, -y, -z'
  3  '-x, -y, z+1/2'
  4  'x, y, -z+1/2'
  5  'x, -y, -z'
  6  '-x, y, z'
  7  '-x, y, -z+1/2'
  8  'x, -y, z+1/2'
  9  'x+1/2, y+1/2, z'
  10  '-x+1/2, -y+1/2, -z'
  11  '-x+1/2, -y+1/2, z+1/2'
  12  'x+1/2, y+1/2, -z+1/2'
  13  'x+1/2, -y+1/2, -z'
  14  '-x+1/2, y+1/2, z'
  15  '-x+1/2, y+1/2, -z+1/2'
  16  'x+1/2, -y+1/2, z+1/2'
loop_
 _atom_site_type_symbol
 _atom_site_label
 _atom_site_symmetry_multiplicity
 _atom_site_fract_x
 _atom_site_fract_y
 _atom_site_fract_z
 _atom_site_occupancy
  U  U0  4  0.00000000  0.03106333  0.25000000  1
  U  U1  4  0.00000000  0.28178585  0.25000000  1
  U  U2  4  0.00000000  0.34374890  0.75000000  1
  U  U3  4  0.00000000  0.40597310  0.25000000  1
  Si  Si4  8  0.15894916  0.21890640  0.75000000  1
  Si  Si5  8  0.15899536  0.84378420  0.75000000  1
  Si  Si6  8  0.15911764  0.09377280  0.75000000  1
  Si  Si7  8  0.15966302  0.46870051  0.75000000  1
  Si  Si8  4  0.00000000  0.01039520  0.75000000  1
  Si  Si9  4  0.00000000  0.05141444  0.75000000  1
  Si  Si10  4  0.00000000  0.07232640  0.25000000  1
  Si  Si11  4  0.00000000  0.11450231  0.25000000  1
  Si  Si12  4  0.00000000  0.13541080  0.75000000  1
  Si  Si13  4  0.00000000  0.17709802  0.75000000  1
  Si  Si14  4  0.00000000  0.19790480  0.25000000  1
  Si  Si15  4  0.00000000  0.24062105  0.25000000  1
  Si  Si16  4  0.00000000  0.26125637  0.75000000  1
  Si  Si17  4  0.00000000  0.30210830  0.75000000  1
  Si  Si18  4  0.00000000  0.32300109  0.25000000  1
  Si  Si19  4  0.00000000  0.36455115  0.25000000  1
  Si  Si20  4  0.00000000  0.38541378  0.75000000  1
  Si  Si21  4  0.00000000  0.42652255  0.75000000  1
  Si  Si22  4  0.00000000  0.44736567  0.25000000  1
  Si  Si23  4  0.00000000  0.48957626  0.25000000  1
  Rh  Rh24  16  0.24286394  0.18748906  0.00010143  1
  Rh  Rh25  16  0.24291464  0.12502271  0.00006345  1
  Rh  Rh26  16  0.24881571  0.06251809  0.50009112  1
  Rh  Rh27  8  0.24136948  0.21875660  0.25000000  1
  Rh  Rh28  8  0.24304642  0.15625397  0.75000000  1
  Rh  Rh29  8  0.24366592  0.09377029  0.25000000  1
  Rh  Rh30  8  0.24609666  0.50000000  0.00000000  1
  Rh  Rh31  8  0.24639949  0.46874996  0.25000000  1
  Rh  Rh32  8  0.25000000  0.25000000  0.00000000  1
