# generated using pymatgen
data_U(GeRu)6
_symmetry_space_group_name_H-M   Cmcm
_cell_length_a   8.05435181
_cell_length_b   37.62921877
_cell_length_c   5.42654284
_cell_angle_alpha   90.00000000
_cell_angle_beta   90.00000000
_cell_angle_gamma   90.00000000
_symmetry_Int_Tables_number   63
_chemical_formula_structural   U(GeRu)6
_chemical_formula_sum   'U8 Ge48 Ru48'
_cell_volume   1644.67099561
_cell_formula_units_Z   8
loop_
 _symmetry_equiv_pos_site_id
 _symmetry_equiv_pos_as_xyz
  1  'x, y, z'
  2  '-x, -y, -z'
  3  '-x, -y, z+1/2'
  4  'x, y, -z+1/2'
  5  'x, -y, -z'
  6  '-x, y, z'
  7  '-x, y, -z+1/2'
  8  'x, -y, z+1/2'
  9  'x+1/2, y+1/2, z'
  10  '-x+1/2, -y+1/2, -z'
  11  '-x+1/2, -y+1/2, z+1/2'
  12  'x+1/2, y+1/2, -z+1/2'
  13  'x+1/2, -y+1/2, -z'
  14  '-x+1/2, y+1/2, z'
  15  '-x+1/2, y+1/2, -z+1/2'
  16  'x+1/2, -y+1/2, z+1/2'
loop_
 _atom_site_type_symbol
 _atom_site_label
 _atom_site_symmetry_multiplicity
 _atom_site_fract_x
 _atom_site_fract_y
 _atom_site_fract_z
 _atom_site_occupancy
  U  U0  4  0.00000000  0.06386155  0.75000000  1
  U  U1  4  0.00000000  0.18937291  0.25000000  1
  Ge  Ge2  8  0.15599413  0.43967457  0.25000000  1
  Ge  Ge3  8  0.15612537  0.31360606  0.75000000  1
  Ge  Ge4  4  0.00000000  0.02124570  0.25000000  1
  Ge  Ge5  4  0.00000000  0.10557295  0.25000000  1
  Ge  Ge6  4  0.00000000  0.14681423  0.75000000  1
  Ge  Ge7  4  0.00000000  0.22999369  0.75000000  1
  Ge  Ge8  4  0.00000000  0.27230142  0.25000000  1
  Ge  Ge9  4  0.00000000  0.35521652  0.25000000  1
  Ge  Ge10  4  0.00000000  0.39669986  0.75000000  1
  Ge  Ge11  4  0.00000000  0.47855134  0.75000000  1
  Ru  Ru12  16  0.24811666  0.37514695  0.00068771  1
  Ru  Ru13  8  0.24717946  0.18752718  0.75000000  1
  Ru  Ru14  8  0.24850413  0.00000000  0.00000000  1
  Ru  Ru15  8  0.24996594  0.43743655  0.75000000  1
  Ru  Ru16  8  0.25000000  0.25000000  0.00000000  1
