# generated using pymatgen
data_U(SiPd)6
_symmetry_space_group_name_H-M   Cmcm
_cell_length_a   7.73956932
_cell_length_b   19.35784379
_cell_length_c   5.57331820
_cell_angle_alpha   90.00000000
_cell_angle_beta   90.00000000
_cell_angle_gamma   90.00000000
_symmetry_Int_Tables_number   63
_chemical_formula_structural   U(SiPd)6
_chemical_formula_sum   'U4 Si24 Pd24'
_cell_volume   835.00218969
_cell_formula_units_Z   4
loop_
 _symmetry_equiv_pos_site_id
 _symmetry_equiv_pos_as_xyz
  1  'x, y, z'
  2  '-x, -y, -z'
  3  '-x, -y, z+1/2'
  4  'x, y, -z+1/2'
  5  'x, -y, -z'
  6  '-x, y, z'
  7  '-x, y, -z+1/2'
  8  'x, -y, z+1/2'
  9  'x+1/2, y+1/2, z'
  10  '-x+1/2, -y+1/2, -z'
  11  '-x+1/2, -y+1/2, z+1/2'
  12  'x+1/2, y+1/2, -z+1/2'
  13  'x+1/2, -y+1/2, -z'
  14  '-x+1/2, y+1/2, z'
  15  '-x+1/2, y+1/2, -z+1/2'
  16  'x+1/2, -y+1/2, z+1/2'
loop_
 _atom_site_type_symbol
 _atom_site_label
 _atom_site_symmetry_multiplicity
 _atom_site_fract_x
 _atom_site_fract_y
 _atom_site_fract_z
 _atom_site_occupancy
  U  U0  4  0.00000000  0.12429393  0.75000000  1
  Si  Si1  8  0.14518622  0.37465198  0.25000000  1
  Si  Si2  4  0.00000000  0.04143094  0.25000000  1
  Si  Si3  4  0.00000000  0.20087639  0.25000000  1
  Si  Si4  4  0.00000000  0.28371464  0.75000000  1
  Si  Si5  4  0.00000000  0.45725731  0.75000000  1
  Pd  Pd6  8  0.24199223  0.50000000  0.00000000  1
  Pd  Pd7  8  0.24460541  0.37510436  0.75000000  1
  Pd  Pd8  8  0.25000000  0.25000000  0.00000000  1
