# generated using pymatgen
data_U(PtPb)6
_symmetry_space_group_name_H-M   Cmcm
_cell_length_a   10.03884357
_cell_length_b   39.66904473
_cell_length_c   5.73073386
_cell_angle_alpha   90.00000000
_cell_angle_beta   90.00000000
_cell_angle_gamma   90.00000000
_symmetry_Int_Tables_number   63
_chemical_formula_structural   U(PtPb)6
_chemical_formula_sum   'U8 Pt48 Pb48'
_cell_volume   2282.15779343
_cell_formula_units_Z   8
loop_
 _symmetry_equiv_pos_site_id
 _symmetry_equiv_pos_as_xyz
  1  'x, y, z'
  2  '-x, -y, -z'
  3  '-x, -y, z+1/2'
  4  'x, y, -z+1/2'
  5  'x, -y, -z'
  6  '-x, y, z'
  7  '-x, y, -z+1/2'
  8  'x, -y, z+1/2'
  9  'x+1/2, y+1/2, z'
  10  '-x+1/2, -y+1/2, -z'
  11  '-x+1/2, -y+1/2, z+1/2'
  12  'x+1/2, y+1/2, -z+1/2'
  13  'x+1/2, -y+1/2, -z'
  14  '-x+1/2, y+1/2, z'
  15  '-x+1/2, y+1/2, -z+1/2'
  16  'x+1/2, -y+1/2, z+1/2'
loop_
 _atom_site_type_symbol
 _atom_site_label
 _atom_site_symmetry_multiplicity
 _atom_site_fract_x
 _atom_site_fract_y
 _atom_site_fract_z
 _atom_site_occupancy
  U  U0  4  0.00000000  0.30996062  0.25000000  1
  U  U1  4  0.00000000  0.43656761  0.75000000  1
  Pt  Pt2  16  0.23875681  0.37500988  0.50244366  1
  Pt  Pt3  8  0.23493189  0.31177555  0.75000000  1
  Pt  Pt4  8  0.23618877  0.50000000  0.00000000  1
  Pt  Pt5  8  0.23753736  0.43707377  0.25000000  1
  Pt  Pt6  8  0.25000000  0.25000000  0.00000000  1
  Pb  Pb7  8  0.18106566  0.18633662  0.75000000  1
  Pb  Pb8  8  0.18114242  0.06125577  0.25000000  1
  Pb  Pb9  4  0.00000000  0.02097865  0.75000000  1
  Pb  Pb10  4  0.00000000  0.10333624  0.75000000  1
  Pb  Pb11  4  0.00000000  0.14368711  0.25000000  1
  Pb  Pb12  4  0.00000000  0.22658163  0.25000000  1
  Pb  Pb13  4  0.00000000  0.26856255  0.75000000  1
  Pb  Pb14  4  0.00000000  0.35278416  0.75000000  1
  Pb  Pb15  4  0.00000000  0.39446130  0.25000000  1
  Pb  Pb16  4  0.00000000  0.47872660  0.25000000  1
