# generated using pymatgen
data_U(PdPb)6
_symmetry_space_group_name_H-M   Cmcm
_cell_length_a   9.69862707
_cell_length_b   40.13254522
_cell_length_c   5.75386350
_cell_angle_alpha   90.00000000
_cell_angle_beta   90.00000000
_cell_angle_gamma   90.00000000
_symmetry_Int_Tables_number   63
_chemical_formula_structural   U(PdPb)6
_chemical_formula_sum   'U8 Pd48 Pb48'
_cell_volume   2239.57968301
_cell_formula_units_Z   8
loop_
 _symmetry_equiv_pos_site_id
 _symmetry_equiv_pos_as_xyz
  1  'x, y, z'
  2  '-x, -y, -z'
  3  '-x, -y, z+1/2'
  4  'x, y, -z+1/2'
  5  'x, -y, -z'
  6  '-x, y, z'
  7  '-x, y, -z+1/2'
  8  'x, -y, z+1/2'
  9  'x+1/2, y+1/2, z'
  10  '-x+1/2, -y+1/2, -z'
  11  '-x+1/2, -y+1/2, z+1/2'
  12  'x+1/2, y+1/2, -z+1/2'
  13  'x+1/2, -y+1/2, -z'
  14  '-x+1/2, y+1/2, z'
  15  '-x+1/2, y+1/2, -z+1/2'
  16  'x+1/2, -y+1/2, z+1/2'
loop_
 _atom_site_type_symbol
 _atom_site_label
 _atom_site_symmetry_multiplicity
 _atom_site_fract_x
 _atom_site_fract_y
 _atom_site_fract_z
 _atom_site_occupancy
  U  U0  4  0.00000000  0.30790340  0.75000000  1
  U  U1  4  0.00000000  0.43422561  0.25000000  1
  Pd  Pd2  16  0.24262141  0.37594638  0.00389221  1
  Pd  Pd3  8  0.23851755  0.68788748  0.75000000  1
  Pd  Pd4  8  0.23923528  0.43734658  0.75000000  1
  Pd  Pd5  8  0.24189367  0.50000000  0.00000000  1
  Pd  Pd6  8  0.25000000  0.25000000  0.00000000  1
  Pb  Pb7  8  0.17406320  0.18633973  0.25000000  1
  Pb  Pb8  8  0.17409448  0.06063066  0.75000000  1
  Pb  Pb9  4  0.00000000  0.02141464  0.25000000  1
  Pb  Pb10  4  0.00000000  0.10349784  0.25000000  1
  Pb  Pb11  4  0.00000000  0.14424340  0.75000000  1
  Pb  Pb12  4  0.00000000  0.22637347  0.75000000  1
  Pb  Pb13  4  0.00000000  0.26912633  0.25000000  1
  Pb  Pb14  4  0.00000000  0.35242094  0.25000000  1
  Pb  Pb15  4  0.00000000  0.39396418  0.75000000  1
  Pb  Pb16  4  0.00000000  0.47911645  0.75000000  1
