# generated using pymatgen
data_U(SnW)6
_symmetry_space_group_name_H-M   Cmmm
_cell_length_a   5.59214348
_cell_length_b   48.54075372
_cell_length_c   9.65703776
_cell_angle_alpha   90.00000000
_cell_angle_beta   90.00000000
_cell_angle_gamma   90.00000000
_symmetry_Int_Tables_number   65
_chemical_formula_structural   U(SnW)6
_chemical_formula_sum   'U10 Sn60 W60'
_cell_volume   2621.37257193
_cell_formula_units_Z   10
loop_
 _symmetry_equiv_pos_site_id
 _symmetry_equiv_pos_as_xyz
  1  'x, y, z'
  2  '-x, -y, -z'
  3  '-x, -y, z'
  4  'x, y, -z'
  5  'x, -y, -z'
  6  '-x, y, z'
  7  '-x, y, -z'
  8  'x, -y, z'
  9  'x+1/2, y+1/2, z'
  10  '-x+1/2, -y+1/2, -z'
  11  '-x+1/2, -y+1/2, z'
  12  'x+1/2, y+1/2, -z'
  13  'x+1/2, -y+1/2, -z'
  14  '-x+1/2, y+1/2, z'
  15  '-x+1/2, y+1/2, -z'
  16  'x+1/2, -y+1/2, z'
loop_
 _atom_site_type_symbol
 _atom_site_label
 _atom_site_symmetry_multiplicity
 _atom_site_fract_x
 _atom_site_fract_y
 _atom_site_fract_z
 _atom_site_occupancy
  U  U0  4  0.00000000  0.19995370  0.00000000  1
  U  U1  4  0.00000000  0.39997321  0.50000000  1
  U  U2  2  0.00000000  0.00000000  0.50000000  1
  Sn  Sn3  8  0.00000000  0.19999011  0.31972142  1
  Sn  Sn4  8  0.00000000  0.39997273  0.18031267  1
  Sn  Sn5  4  0.00000000  0.00000000  0.18081891  1
  Sn  Sn6  4  0.00000000  0.06660671  0.50000000  1
  Sn  Sn7  4  0.00000000  0.06690461  0.00000000  1
  Sn  Sn8  4  0.00000000  0.13246394  0.50000000  1
  Sn  Sn9  4  0.00000000  0.13412723  0.00000000  1
  Sn  Sn10  4  0.00000000  0.26663238  0.00000000  1
  Sn  Sn11  4  0.00000000  0.26686667  0.50000000  1
  Sn  Sn12  4  0.00000000  0.33246561  0.00000000  1
  Sn  Sn13  4  0.00000000  0.33412419  0.50000000  1
  Sn  Sn14  4  0.00000000  0.46671768  0.50000000  1
  Sn  Sn15  4  0.00000000  0.46674332  0.00000000  1
  W  W16  16  0.24980655  0.44999505  0.25049418  1
  W  W17  16  0.24997400  0.84999712  0.25000624  1
  W  W18  8  0.00000000  0.09986285  0.25144838  1
  W  W19  8  0.00000000  0.29986511  0.24855391  1
  W  W20  8  0.25000000  0.25000000  0.24950289  1
  W  W21  4  0.00000000  0.50000000  0.25072213  1
