# generated using pymatgen
data_Zr6USi6
_symmetry_space_group_name_H-M   Immm
_cell_length_a   5.83741374
_cell_length_b   8.85988646
_cell_length_c   30.60907065
_cell_angle_alpha   90.00000000
_cell_angle_beta   90.00000000
_cell_angle_gamma   90.00000000
_symmetry_Int_Tables_number   71
_chemical_formula_structural   Zr6USi6
_chemical_formula_sum   'Zr36 U6 Si36'
_cell_volume   1583.06510521
_cell_formula_units_Z   6
loop_
 _symmetry_equiv_pos_site_id
 _symmetry_equiv_pos_as_xyz
  1  'x, y, z'
  2  '-x, -y, -z'
  3  '-x, -y, z'
  4  'x, y, -z'
  5  'x, -y, -z'
  6  '-x, y, z'
  7  '-x, y, -z'
  8  'x, -y, z'
  9  'x+1/2, y+1/2, z+1/2'
  10  '-x+1/2, -y+1/2, -z+1/2'
  11  '-x+1/2, -y+1/2, z+1/2'
  12  'x+1/2, y+1/2, -z+1/2'
  13  'x+1/2, -y+1/2, -z+1/2'
  14  '-x+1/2, y+1/2, z+1/2'
  15  '-x+1/2, y+1/2, -z+1/2'
  16  'x+1/2, -y+1/2, z+1/2'
loop_
 _atom_site_type_symbol
 _atom_site_label
 _atom_site_symmetry_multiplicity
 _atom_site_fract_x
 _atom_site_fract_y
 _atom_site_fract_z
 _atom_site_occupancy
  Zr  Zr0  16  0.24978432  0.23738705  0.41625596  1
  Zr  Zr1  8  0.00000000  0.28285802  0.66635175  1
  Zr  Zr2  8  0.25000000  0.25000000  0.25000000  1
  Zr  Zr3  4  0.00000000  0.22794890  0.00000000  1
  U  U4  4  0.00000000  0.50000000  0.16743801  1
  U  U5  2  0.00000000  0.00000000  0.50000000  1
  Si  Si6  8  0.00000000  0.17513201  0.16720335  1
  Si  Si7  4  0.00000000  0.00000000  0.06362449  1
  Si  Si8  4  0.00000000  0.00000000  0.28967760  1
  Si  Si9  4  0.00000000  0.00000000  0.37617569  1
  Si  Si10  4  0.00000000  0.32168912  0.50000000  1
  Si  Si11  4  0.00000000  0.50000000  0.04720375  1
  Si  Si12  4  0.00000000  0.50000000  0.26929468  1
  Si  Si13  4  0.00000000  0.50000000  0.40008063  1
