# generated using pymatgen
data_U(GePt)6
_symmetry_space_group_name_H-M   P-1
_cell_length_a   5.50610275
_cell_length_b   8.70667164
_cell_length_c   37.84406861
_cell_angle_alpha   84.70573954
_cell_angle_beta   89.35781428
_cell_angle_gamma   82.54266000
_symmetry_Int_Tables_number   2
_chemical_formula_structural   U(GePt)6
_chemical_formula_sum   'U8 Ge48 Pt48'
_cell_volume   1791.21820868
_cell_formula_units_Z   8
loop_
 _symmetry_equiv_pos_site_id
 _symmetry_equiv_pos_as_xyz
  1  'x, y, z'
  2  '-x, -y, -z'
loop_
 _atom_site_type_symbol
 _atom_site_label
 _atom_site_symmetry_multiplicity
 _atom_site_fract_x
 _atom_site_fract_y
 _atom_site_fract_z
 _atom_site_occupancy
  U  U0  2  0.24970094  0.71900360  0.56238078  1
  U  U1  2  0.24981406  0.96829869  0.06290926  1
  U  U2  2  0.24997145  0.34376149  0.31248413  1
  U  U3  2  0.25008681  0.59339496  0.81277111  1
  Ge  Ge4  2  0.24633056  0.62508280  0.06252558  1
  Ge  Ge5  2  0.24825950  0.37392780  0.56255047  1
  Ge  Ge6  2  0.24829203  0.24830620  0.81225591  1
  Ge  Ge7  2  0.24869093  0.99890215  0.31246325  1
  Ge  Ge8  2  0.24894727  0.67701712  0.64614520  1
  Ge  Ge9  2  0.24899041  0.05217136  0.89598158  1
  Ge  Ge10  2  0.24902964  0.30205214  0.39629358  1
  Ge  Ge11  2  0.24908880  0.42722129  0.14597719  1
  Ge  Ge12  2  0.24938594  0.55237749  0.89619354  1
  Ge  Ge13  2  0.24950157  0.80300536  0.39601234  1
  Ge  Ge14  2  0.24956464  0.92760250  0.14596791  1
  Ge  Ge15  2  0.24965792  0.17813484  0.64601390  1
  Ge  Ge16  2  0.25035488  0.13438859  0.72892307  1
  Ge  Ge17  2  0.25040854  0.76000248  0.47945611  1
  Ge  Ge18  2  0.25043255  0.88445496  0.22886201  1
  Ge  Ge19  2  0.25066691  0.50972837  0.97891340  1
  Ge  Ge20  2  0.25095071  0.26062233  0.47861035  1
  Ge  Ge21  2  0.25102286  0.01073100  0.97893603  1
  Ge  Ge22  2  0.25105085  0.38557406  0.22870741  1
  Ge  Ge23  2  0.25106912  0.63550394  0.72881865  1
  Ge  Ge24  2  0.25131393  0.68867191  0.31241138  1
  Ge  Ge25  2  0.25150555  0.93945253  0.81216667  1
  Ge  Ge26  2  0.25188428  0.06363598  0.56248651  1
  Ge  Ge27  2  0.25349368  0.31237042  0.06230905  1
  Pt  Pt28  2  0.00012750  0.42888802  0.62487681  1
  Pt  Pt29  2  0.00013805  0.94599888  0.62496303  1
  Pt  Pt30  2  0.00016427  0.63340178  0.25004994  1
  Pt  Pt31  2  0.00031575  0.88324782  0.75013803  1
  Pt  Pt32  2  0.00165356  0.81716217  0.87514736  1
  Pt  Pt33  2  0.00320906  0.69358852  0.12465838  1
  Pt  Pt34  2  0.00473373  0.75169495  0.99986484  1
  Pt  Pt35  2  0.24734870  0.27930558  0.93772914  1
  Pt  Pt36  2  0.24751793  0.54187990  0.43761906  1
  Pt  Pt37  2  0.24758732  0.91526113  0.68757811  1
  Pt  Pt38  2  0.24806604  0.66387051  0.18750255  1
  Pt  Pt39  2  0.25192983  0.14907028  0.18746410  1
  Pt  Pt40  2  0.25241473  0.39726923  0.68739436  1
  Pt  Pt41  2  0.25243571  0.01989663  0.43749925  1
  Pt  Pt42  2  0.25252655  0.78332024  0.93744747  1
  Pt  Pt43  2  0.49561988  0.24856890  0.00006002  1
  Pt  Pt44  2  0.49618679  0.18216209  0.12465610  1
  Pt  Pt45  2  0.49853842  0.30775547  0.87528812  1
  Pt  Pt46  2  0.49957093  0.42946714  0.62479775  1
  Pt  Pt47  2  0.49986988  0.36633427  0.75001225  1
  Pt  Pt48  2  0.49988682  0.94580001  0.62498881  1
  Pt  Pt49  2  0.49994212  0.11629371  0.24995237  1
  Pt  Pt50  1  0.00000000  0.00000000  0.50000000  1
  Pt  Pt51  1  0.00000000  0.50000000  0.50000000  1
  Pt  Pt52  1  0.50000000  0.00000000  0.50000000  1
  Pt  Pt53  1  0.50000000  0.50000000  0.50000000  1
