# generated using pymatgen
data_U(AgGe)6
_symmetry_space_group_name_H-M   Cmcm
_cell_length_a   8.81620085
_cell_length_b   19.88331782
_cell_length_c   5.77174037
_cell_angle_alpha   90.00000000
_cell_angle_beta   90.00000000
_cell_angle_gamma   90.00000000
_symmetry_Int_Tables_number   63
_chemical_formula_structural   U(AgGe)6
_chemical_formula_sum   'U4 Ag24 Ge24'
_cell_volume   1011.75909461
_cell_formula_units_Z   4
loop_
 _symmetry_equiv_pos_site_id
 _symmetry_equiv_pos_as_xyz
  1  'x, y, z'
  2  '-x, -y, -z'
  3  '-x, -y, z+1/2'
  4  'x, y, -z+1/2'
  5  'x, -y, -z'
  6  '-x, y, z'
  7  '-x, y, -z+1/2'
  8  'x, -y, z+1/2'
  9  'x+1/2, y+1/2, z'
  10  '-x+1/2, -y+1/2, -z'
  11  '-x+1/2, -y+1/2, z+1/2'
  12  'x+1/2, y+1/2, -z+1/2'
  13  'x+1/2, -y+1/2, -z'
  14  '-x+1/2, y+1/2, z'
  15  '-x+1/2, y+1/2, -z+1/2'
  16  'x+1/2, -y+1/2, z+1/2'
loop_
 _atom_site_type_symbol
 _atom_site_label
 _atom_site_symmetry_multiplicity
 _atom_site_fract_x
 _atom_site_fract_y
 _atom_site_fract_z
 _atom_site_occupancy
  U  U0  4  0.00000000  0.37356873  0.25000000  1
  Ag  Ag1  8  0.24569885  0.62514321  0.25000000  1
  Ag  Ag2  8  0.24760848  0.50000000  0.00000000  1
  Ag  Ag3  8  0.25000000  0.25000000  0.00000000  1
  Ge  Ge4  8  0.13891772  0.87633607  0.25000000  1
  Ge  Ge5  4  0.00000000  0.04170275  0.25000000  1
  Ge  Ge6  4  0.00000000  0.20989940  0.25000000  1
  Ge  Ge7  4  0.00000000  0.29303706  0.75000000  1
  Ge  Ge8  4  0.00000000  0.45802722  0.75000000  1
