# generated using pymatgen
data_U(SiPt)6
_symmetry_space_group_name_H-M   P-1
_cell_length_a   5.61633597
_cell_length_b   7.74591867
_cell_length_c   39.15841644
_cell_angle_alpha   84.63629614
_cell_angle_beta   89.81206718
_cell_angle_gamma   87.62022812
_symmetry_Int_Tables_number   2
_chemical_formula_structural   U(SiPt)6
_chemical_formula_sum   'U8 Si48 Pt48'
_cell_volume   1694.61306201
_cell_formula_units_Z   8
loop_
 _symmetry_equiv_pos_site_id
 _symmetry_equiv_pos_as_xyz
  1  'x, y, z'
  2  '-x, -y, -z'
loop_
 _atom_site_type_symbol
 _atom_site_label
 _atom_site_symmetry_multiplicity
 _atom_site_fract_x
 _atom_site_fract_y
 _atom_site_fract_z
 _atom_site_occupancy
  U  U0  2  0.24999174  0.71846706  0.56309112  1
  U  U1  2  0.24999975  0.34373741  0.31252657  1
  U  U2  2  0.25002806  0.96879091  0.06236105  1
  U  U3  2  0.25005654  0.59386433  0.81219554  1
  Si  Si4  2  0.24725588  0.61728964  0.06265465  1
  Si  Si5  2  0.24728259  0.36752796  0.56259577  1
  Si  Si6  2  0.24728473  0.24281807  0.81202894  1
  Si  Si7  2  0.24738143  0.99280476  0.31240428  1
  Si  Si8  2  0.24998455  0.80225019  0.39556070  1
  Si  Si9  2  0.24998571  0.67712966  0.64574463  1
  Si  Si10  2  0.24998642  0.30192791  0.39615057  1
  Si  Si11  2  0.24998690  0.17710143  0.64580629  1
  Si  Si12  2  0.24999064  0.05093718  0.89819742  1
  Si  Si13  2  0.24999372  0.42576550  0.14857684  1
  Si  Si14  2  0.25000597  0.75903508  0.48195055  1
  Si  Si15  2  0.25000614  0.51032259  0.97928875  1
  Si  Si16  2  0.25000640  0.26161368  0.47670267  1
  Si  Si17  2  0.25001182  0.38550180  0.22899015  1
  Si  Si18  2  0.25001218  0.88528804  0.22931156  1
  Si  Si19  2  0.25001235  0.13544305  0.72910494  1
  Si  Si20  2  0.25001324  0.01048662  0.97902441  1
  Si  Si21  2  0.25001439  0.63538214  0.72923351  1
  Si  Si22  2  0.25001775  0.55352529  0.89289337  1
  Si  Si23  2  0.25004298  0.92826255  0.14338472  1
  Si  Si24  2  0.25261788  0.69480394  0.31237737  1
  Si  Si25  2  0.25270843  0.94515446  0.81199772  1
  Si  Si26  2  0.25271980  0.06989524  0.56256445  1
  Si  Si27  2  0.25274239  0.32006343  0.06262299  1
  Pt  Pt28  2  0.00000152  0.30986523  0.87508057  1
  Pt  Pt29  2  0.00041325  0.81497981  0.87510606  1
  Pt  Pt30  2  0.00086678  0.11698591  0.24994802  1
  Pt  Pt31  2  0.00087112  0.05449393  0.37504848  1
  Pt  Pt32  2  0.00109718  0.42956866  0.62484939  1
  Pt  Pt33  2  0.00110616  0.36687938  0.75012026  1
  Pt  Pt34  2  0.00142847  0.74721726  0.99999392  1
  Pt  Pt35  2  0.24857556  0.91467216  0.68749595  1
  Pt  Pt36  2  0.24862591  0.28339714  0.93764377  1
  Pt  Pt37  2  0.24862936  0.54133124  0.43761793  1
  Pt  Pt38  2  0.24863373  0.66397616  0.18741678  1
  Pt  Pt39  2  0.25136470  0.14861975  0.18740925  1
  Pt  Pt40  2  0.25137070  0.02105148  0.43760917  1
  Pt  Pt41  2  0.25137307  0.77897593  0.93763061  1
  Pt  Pt42  2  0.25142430  0.39783775  0.68748489  1
  Pt  Pt43  2  0.49857584  0.25278049  0.00000815  1
  Pt  Pt44  2  0.49887654  0.88299375  0.75013314  1
  Pt  Pt45  2  0.49892361  0.94557759  0.62486220  1
  Pt  Pt46  2  0.49911318  0.63306227  0.24996127  1
  Pt  Pt47  2  0.49915115  0.57044739  0.37506135  1
  Pt  Pt48  2  0.49957591  0.30991167  0.87510693  1
  Pt  Pt49  2  0.49999295  0.18494910  0.12492118  1
  Pt  Pt50  1  0.00000000  0.00000000  0.50000000  1
  Pt  Pt51  1  0.00000000  0.50000000  0.50000000  1
  Pt  Pt52  1  0.50000000  0.00000000  0.50000000  1
  Pt  Pt53  1  0.50000000  0.50000000  0.50000000  1
