# generated using pymatgen
data_U(GeAu)6
_symmetry_space_group_name_H-M   P-1
_cell_length_a   5.82014843
_cell_length_b   8.52634679
_cell_length_c   40.43799082
_cell_angle_alpha   84.25061313
_cell_angle_beta   89.67005381
_cell_angle_gamma   85.90491347
_symmetry_Int_Tables_number   2
_chemical_formula_structural   U(GeAu)6
_chemical_formula_sum   'U8 Ge48 Au48'
_cell_volume   1991.52512509
_cell_formula_units_Z   8
loop_
 _symmetry_equiv_pos_site_id
 _symmetry_equiv_pos_as_xyz
  1  'x, y, z'
  2  '-x, -y, -z'
loop_
 _atom_site_type_symbol
 _atom_site_label
 _atom_site_symmetry_multiplicity
 _atom_site_fract_x
 _atom_site_fract_y
 _atom_site_fract_z
 _atom_site_occupancy
  U  U0  2  0.24999678  0.71897373  0.56205211  1
  U  U1  2  0.24999993  0.34375462  0.31249136  1
  U  U2  2  0.25000053  0.59360110  0.81279925  1
  U  U3  2  0.25000319  0.96847145  0.06304551  1
  Ge  Ge4  2  0.24983695  0.99165818  0.31242622  1
  Ge  Ge5  2  0.24986817  0.36545688  0.56266811  1
  Ge  Ge6  2  0.24986998  0.61518151  0.06239388  1
  Ge  Ge7  2  0.24987163  0.24055042  0.81249340  1
  Ge  Ge8  2  0.24998258  0.92887897  0.14226743  1
  Ge  Ge9  2  0.24998620  0.17716467  0.64568315  1
  Ge  Ge10  2  0.24998758  0.80208388  0.39582267  1
  Ge  Ge11  2  0.24999235  0.38552495  0.22893857  1
  Ge  Ge12  2  0.24999305  0.55418461  0.89162638  1
  Ge  Ge13  2  0.24999315  0.63547187  0.72905565  1
  Ge  Ge14  2  0.24999645  0.26270559  0.47459917  1
  Ge  Ge15  2  0.24999726  0.05056775  0.89881748  1
  Ge  Ge16  2  0.24999985  0.42475855  0.15046249  1
  Ge  Ge17  2  0.25000410  0.01030609  0.97937158  1
  Ge  Ge18  2  0.25000525  0.51006875  0.97986670  1
  Ge  Ge19  2  0.25000735  0.30197294  0.39605678  1
  Ge  Ge20  2  0.25000843  0.67702305  0.64595639  1
  Ge  Ge21  2  0.25001329  0.75839304  0.48320092  1
  Ge  Ge22  2  0.25001337  0.88543062  0.22913640  1
  Ge  Ge23  2  0.25001411  0.13537028  0.72924606  1
  Ge  Ge24  2  0.25012716  0.94695140  0.81248873  1
  Ge  Ge25  2  0.25013017  0.32241973  0.06238994  1
  Ge  Ge26  2  0.25013255  0.07188201  0.56266344  1
  Ge  Ge27  2  0.25016262  0.69591798  0.31242189  1
  Au  Au28  2  0.00005286  0.75242659  0.99998454  1
  Au  Au29  2  0.00023055  0.11668134  0.25010325  1
  Au  Au30  2  0.00033070  0.05463542  0.37493839  1
  Au  Au31  2  0.00037211  0.30715750  0.87497528  1
  Au  Au32  2  0.00040948  0.63321653  0.25010234  1
  Au  Au33  2  0.00049256  0.57046629  0.37494034  1
  Au  Au34  2  0.00052049  0.81764298  0.87497950  1
  Au  Au35  2  0.24988618  0.02122490  0.43766986  1
  Au  Au36  2  0.24988930  0.39832822  0.68748510  1
  Au  Au37  2  0.24992391  0.14982427  0.18756807  1
  Au  Au38  2  0.24993839  0.78544684  0.93756353  1
  Au  Au39  2  0.25006034  0.27702524  0.93756922  1
  Au  Au40  2  0.25007793  0.66261444  0.18756893  1
  Au  Au41  2  0.25010837  0.91419358  0.68748609  1
  Au  Au42  2  0.25012291  0.54112537  0.43767034  1
  Au  Au43  2  0.49946418  0.30738812  0.87498198  1
  Au  Au44  2  0.49950290  0.05459899  0.37494492  1
  Au  Au45  2  0.49958806  0.11666781  0.25010419  1
  Au  Au46  2  0.49963439  0.81786457  0.87497569  1
  Au  Au47  2  0.49966817  0.57041285  0.37493483  1
  Au  Au48  2  0.49976650  0.63323927  0.25009923  1
  Au  Au49  2  0.49996975  0.24758793  0.99998347  1
  Au  Au50  1  0.00000000  0.00000000  0.50000000  1
  Au  Au51  1  0.00000000  0.50000000  0.50000000  1
  Au  Au52  1  0.50000000  0.00000000  0.50000000  1
  Au  Au53  1  0.50000000  0.50000000  0.50000000  1
