# generated using pymatgen
data_U(SiOs)6
_symmetry_space_group_name_H-M   Immm
_cell_length_a   5.36008972
_cell_length_b   7.88716872
_cell_length_c   27.85626697
_cell_angle_alpha   90.00000000
_cell_angle_beta   90.00000000
_cell_angle_gamma   90.00000000
_symmetry_Int_Tables_number   71
_chemical_formula_structural   U(SiOs)6
_chemical_formula_sum   'U6 Si36 Os36'
_cell_volume   1177.64964624
_cell_formula_units_Z   6
loop_
 _symmetry_equiv_pos_site_id
 _symmetry_equiv_pos_as_xyz
  1  'x, y, z'
  2  '-x, -y, -z'
  3  '-x, -y, z'
  4  'x, y, -z'
  5  'x, -y, -z'
  6  '-x, y, z'
  7  '-x, y, -z'
  8  'x, -y, z'
  9  'x+1/2, y+1/2, z+1/2'
  10  '-x+1/2, -y+1/2, -z+1/2'
  11  '-x+1/2, -y+1/2, z+1/2'
  12  'x+1/2, y+1/2, -z+1/2'
  13  'x+1/2, -y+1/2, -z+1/2'
  14  '-x+1/2, y+1/2, z+1/2'
  15  '-x+1/2, y+1/2, -z+1/2'
  16  'x+1/2, -y+1/2, z+1/2'
loop_
 _atom_site_type_symbol
 _atom_site_label
 _atom_site_symmetry_multiplicity
 _atom_site_fract_x
 _atom_site_fract_y
 _atom_site_fract_z
 _atom_site_occupancy
  U  U0  4  0.00000000  0.50000000  0.16691893  1
  U  U1  2  0.00000000  0.00000000  0.50000000  1
  Si  Si2  8  0.00000000  0.16083073  0.83321099  1
  Si  Si3  4  0.00000000  0.00000000  0.05598274  1
  Si  Si4  4  0.00000000  0.00000000  0.27899853  1
  Si  Si5  4  0.00000000  0.00000000  0.38831820  1
  Si  Si6  4  0.00000000  0.33922463  0.50000000  1
  Si  Si7  4  0.00000000  0.50000000  0.05577786  1
  Si  Si8  4  0.00000000  0.50000000  0.27692918  1
  Si  Si9  4  0.00000000  0.50000000  0.38937428  1
  Os  Os10  16  0.24972512  0.25172073  0.41676256  1
  Os  Os11  8  0.00000000  0.25562662  0.33345062  1
  Os  Os12  8  0.25000000  0.25000000  0.25000000  1
  Os  Os13  4  0.00000000  0.24735786  0.00000000  1
