# generated using pymatgen
data_U(SnW)6
_symmetry_space_group_name_H-M   Cmcm
_cell_length_a   9.65924610
_cell_length_b   19.41412664
_cell_length_c   5.59053726
_cell_angle_alpha   90.00000000
_cell_angle_beta   90.00000000
_cell_angle_gamma   90.00000000
_symmetry_Int_Tables_number   63
_chemical_formula_structural   U(SnW)6
_chemical_formula_sum   'U4 Sn24 W24'
_cell_volume   1048.37012379
_cell_formula_units_Z   4
loop_
 _symmetry_equiv_pos_site_id
 _symmetry_equiv_pos_as_xyz
  1  'x, y, z'
  2  '-x, -y, -z'
  3  '-x, -y, z+1/2'
  4  'x, y, -z+1/2'
  5  'x, -y, -z'
  6  '-x, y, z'
  7  '-x, y, -z+1/2'
  8  'x, -y, z+1/2'
  9  'x+1/2, y+1/2, z'
  10  '-x+1/2, -y+1/2, -z'
  11  '-x+1/2, -y+1/2, z+1/2'
  12  'x+1/2, y+1/2, -z+1/2'
  13  'x+1/2, -y+1/2, -z'
  14  '-x+1/2, y+1/2, z'
  15  '-x+1/2, y+1/2, -z+1/2'
  16  'x+1/2, -y+1/2, z+1/2'
loop_
 _atom_site_type_symbol
 _atom_site_label
 _atom_site_symmetry_multiplicity
 _atom_site_fract_x
 _atom_site_fract_y
 _atom_site_fract_z
 _atom_site_occupancy
  U  U0  4  0.00000000  0.12549787  0.25000000  1
  Sn  Sn1  8  0.18029650  0.37513623  0.75000000  1
  Sn  Sn2  4  0.00000000  0.04145622  0.75000000  1
  Sn  Sn3  4  0.00000000  0.20664692  0.75000000  1
  Sn  Sn4  4  0.00000000  0.28968512  0.25000000  1
  Sn  Sn5  4  0.00000000  0.45788011  0.25000000  1
  W  W6  8  0.24805350  0.12473534  0.75000000  1
  W  W7  8  0.24946355  0.00000000  0.00000000  1
  W  W8  8  0.25000000  0.25000000  0.00000000  1
