# generated using pymatgen
data_U(IrPb)6
_symmetry_space_group_name_H-M   Immm
_cell_length_a   5.63390946
_cell_length_b   9.63912392
_cell_length_c   29.39610735
_cell_angle_alpha   90.00000000
_cell_angle_beta   90.00000000
_cell_angle_gamma   90.00000000
_symmetry_Int_Tables_number   71
_chemical_formula_structural   U(IrPb)6
_chemical_formula_sum   'U6 Ir36 Pb36'
_cell_volume   1596.38357947
_cell_formula_units_Z   6
loop_
 _symmetry_equiv_pos_site_id
 _symmetry_equiv_pos_as_xyz
  1  'x, y, z'
  2  '-x, -y, -z'
  3  '-x, -y, z'
  4  'x, y, -z'
  5  'x, -y, -z'
  6  '-x, y, z'
  7  '-x, y, -z'
  8  'x, -y, z'
  9  'x+1/2, y+1/2, z+1/2'
  10  '-x+1/2, -y+1/2, -z+1/2'
  11  '-x+1/2, -y+1/2, z+1/2'
  12  'x+1/2, y+1/2, -z+1/2'
  13  'x+1/2, -y+1/2, -z+1/2'
  14  '-x+1/2, y+1/2, z+1/2'
  15  '-x+1/2, y+1/2, -z+1/2'
  16  'x+1/2, -y+1/2, z+1/2'
loop_
 _atom_site_type_symbol
 _atom_site_label
 _atom_site_symmetry_multiplicity
 _atom_site_fract_x
 _atom_site_fract_y
 _atom_site_fract_z
 _atom_site_occupancy
  U  U0  4  0.00000000  0.50000000  0.33328977  1
  U  U1  2  0.00000000  0.00000000  0.00000000  1
  Ir  Ir2  16  0.24956329  0.23621491  0.08326420  1
  Ir  Ir3  8  0.00000000  0.23415577  0.83300540  1
  Ir  Ir4  8  0.25000000  0.25000000  0.25000000  1
  Ir  Ir5  4  0.00000000  0.26364174  0.50000000  1
  Pb  Pb6  8  0.00000000  0.17701023  0.33409243  1
  Pb  Pb7  4  0.00000000  0.00000000  0.11164536  1
  Pb  Pb8  4  0.00000000  0.00000000  0.22448265  1
  Pb  Pb9  4  0.00000000  0.00000000  0.44463317  1
  Pb  Pb10  4  0.00000000  0.32384347  0.00000000  1
  Pb  Pb11  4  0.00000000  0.50000000  0.11051349  1
  Pb  Pb12  4  0.00000000  0.50000000  0.22090734  1
  Pb  Pb13  4  0.00000000  0.50000000  0.44446699  1
