# generated using pymatgen
data_Hf6UPb6
_symmetry_space_group_name_H-M   Cmcm
_cell_length_a   10.37665705
_cell_length_b   83.91894177
_cell_length_c   6.04160553
_cell_angle_alpha   90.00000000
_cell_angle_beta   90.00000000
_cell_angle_gamma   90.00000000
_symmetry_Int_Tables_number   63
_chemical_formula_structural   Hf6UPb6
_chemical_formula_sum   'Hf96 U16 Pb96'
_cell_volume   5261.01848646
_cell_formula_units_Z   16
loop_
 _symmetry_equiv_pos_site_id
 _symmetry_equiv_pos_as_xyz
  1  'x, y, z'
  2  '-x, -y, -z'
  3  '-x, -y, z+1/2'
  4  'x, y, -z+1/2'
  5  'x, -y, -z'
  6  '-x, y, z'
  7  '-x, y, -z+1/2'
  8  'x, -y, z+1/2'
  9  'x+1/2, y+1/2, z'
  10  '-x+1/2, -y+1/2, -z'
  11  '-x+1/2, -y+1/2, z+1/2'
  12  'x+1/2, y+1/2, -z+1/2'
  13  'x+1/2, -y+1/2, -z'
  14  '-x+1/2, y+1/2, z'
  15  '-x+1/2, y+1/2, -z+1/2'
  16  'x+1/2, -y+1/2, z+1/2'
loop_
 _atom_site_type_symbol
 _atom_site_label
 _atom_site_symmetry_multiplicity
 _atom_site_fract_x
 _atom_site_fract_y
 _atom_site_fract_z
 _atom_site_occupancy
  Hf  Hf0  16  0.24455966  0.12501945  0.50012010  1
  Hf  Hf1  16  0.24461598  0.18749591  0.00000187  1
  Hf  Hf2  16  0.24885403  0.43757025  0.00054289  1
  Hf  Hf3  8  0.24271573  0.46876500  0.75000000  1
  Hf  Hf4  8  0.24275883  0.50000000  0.00000000  1
  Hf  Hf5  8  0.24450322  0.09375544  0.75000000  1
  Hf  Hf6  8  0.24452112  0.15625138  0.25000000  1
  Hf  Hf7  8  0.24542393  0.21873333  0.75000000  1
  Hf  Hf8  8  0.25000000  0.25000000  0.00000000  1
  U  U9  4  0.00000000  0.09392759  0.25000000  1
  U  U10  4  0.00000000  0.15623292  0.75000000  1
  U  U11  4  0.00000000  0.21852160  0.25000000  1
  U  U12  4  0.00000000  0.46884514  0.25000000  1
  Pb  Pb13  8  0.16739532  0.34374210  0.25000000  1
  Pb  Pb14  8  0.16769598  0.28129498  0.75000000  1
  Pb  Pb15  8  0.16780872  0.40616789  0.75000000  1
  Pb  Pb16  8  0.16874356  0.03109841  0.75000000  1
  Pb  Pb17  4  0.00000000  0.01045200  0.25000000  1
  Pb  Pb18  4  0.00000000  0.05248768  0.25000000  1
  Pb  Pb19  4  0.00000000  0.07331102  0.75000000  1
  Pb  Pb20  4  0.00000000  0.11460963  0.75000000  1
  Pb  Pb21  4  0.00000000  0.13543350  0.25000000  1
  Pb  Pb22  4  0.00000000  0.17704880  0.25000000  1
  Pb  Pb23  4  0.00000000  0.19785399  0.75000000  1
  Pb  Pb24  4  0.00000000  0.23891560  0.75000000  1
  Pb  Pb25  4  0.00000000  0.25979966  0.25000000  1
  Pb  Pb26  4  0.00000000  0.30201443  0.25000000  1
  Pb  Pb27  4  0.00000000  0.32290764  0.75000000  1
  Pb  Pb28  4  0.00000000  0.36458080  0.75000000  1
  Pb  Pb29  4  0.00000000  0.38544084  0.25000000  1
  Pb  Pb30  4  0.00000000  0.42729573  0.25000000  1
  Pb  Pb31  4  0.00000000  0.44823069  0.75000000  1
  Pb  Pb32  4  0.00000000  0.48960987  0.75000000  1
