# generated using pymatgen
data_U(NiGe)6
_symmetry_space_group_name_H-M   C2/c
_cell_length_a   7.96882699
_cell_length_b   35.29509784
_cell_length_c   5.14444069
_cell_angle_alpha   90.00000000
_cell_angle_beta   95.56544224
_cell_angle_gamma   90.00000000
_symmetry_Int_Tables_number   15
_chemical_formula_structural   U(NiGe)6
_chemical_formula_sum   'U8 Ni48 Ge48'
_cell_volume   1440.10739516
_cell_formula_units_Z   8
loop_
 _symmetry_equiv_pos_site_id
 _symmetry_equiv_pos_as_xyz
  1  'x, y, z'
  2  '-x, -y, -z'
  3  '-x, y, -z+1/2'
  4  'x, -y, z+1/2'
  5  'x+1/2, y+1/2, z'
  6  '-x+1/2, -y+1/2, -z'
  7  '-x+1/2, y+1/2, -z+1/2'
  8  'x+1/2, -y+1/2, z+1/2'
loop_
 _atom_site_type_symbol
 _atom_site_label
 _atom_site_symmetry_multiplicity
 _atom_site_fract_x
 _atom_site_fract_y
 _atom_site_fract_z
 _atom_site_occupancy
  U  U0  4  0.00000000  0.06546348  0.75000000  1
  U  U1  4  0.00000000  0.19298231  0.25000000  1
  Ni  Ni2  8  0.24459781  0.18754182  0.74317188  1
  Ni  Ni3  8  0.24649083  0.93752874  0.74399849  1
  Ni  Ni4  8  0.24838586  0.00063619  0.99588003  1
  Ni  Ni5  8  0.24938403  0.12412033  0.99499194  1
  Ni  Ni6  8  0.24976494  0.37536528  0.50008940  1
  Ni  Ni7  4  0.25000000  0.25000000  0.00000000  1
  Ni  Ni8  4  0.25000000  0.25000000  0.50000000  1
  Ge  Ge9  8  0.15412223  0.43965444  0.25600466  1
  Ge  Ge10  8  0.15429302  0.31394090  0.75522213  1
  Ge  Ge11  4  0.00000000  0.02109607  0.25000000  1
  Ge  Ge12  4  0.00000000  0.10660610  0.25000000  1
  Ge  Ge13  4  0.00000000  0.14846424  0.75000000  1
  Ge  Ge14  4  0.00000000  0.23272569  0.75000000  1
  Ge  Ge15  4  0.00000000  0.27547070  0.25000000  1
  Ge  Ge16  4  0.00000000  0.35576186  0.25000000  1
  Ge  Ge17  4  0.00000000  0.39724330  0.75000000  1
  Ge  Ge18  4  0.00000000  0.47785127  0.75000000  1
