# generated using pymatgen
data_U(SiW)6
_symmetry_space_group_name_H-M   Cmmm
_cell_length_a   5.38682784
_cell_length_b   46.84193062
_cell_length_c   8.35696825
_cell_angle_alpha   90.00000000
_cell_angle_beta   90.00000000
_cell_angle_gamma   90.00000000
_symmetry_Int_Tables_number   65
_chemical_formula_structural   U(SiW)6
_chemical_formula_sum   'U10 Si60 W60'
_cell_volume   2108.70891788
_cell_formula_units_Z   10
loop_
 _symmetry_equiv_pos_site_id
 _symmetry_equiv_pos_as_xyz
  1  'x, y, z'
  2  '-x, -y, -z'
  3  '-x, -y, z'
  4  'x, y, -z'
  5  'x, -y, -z'
  6  '-x, y, z'
  7  '-x, y, -z'
  8  'x, -y, z'
  9  'x+1/2, y+1/2, z'
  10  '-x+1/2, -y+1/2, -z'
  11  '-x+1/2, -y+1/2, z'
  12  'x+1/2, y+1/2, -z'
  13  'x+1/2, -y+1/2, -z'
  14  '-x+1/2, y+1/2, z'
  15  '-x+1/2, y+1/2, -z'
  16  'x+1/2, -y+1/2, z'
loop_
 _atom_site_type_symbol
 _atom_site_label
 _atom_site_symmetry_multiplicity
 _atom_site_fract_x
 _atom_site_fract_y
 _atom_site_fract_z
 _atom_site_occupancy
  U  U0  4  0.00000000  0.09959681  0.00000000  1
  U  U1  4  0.00000000  0.29958038  0.50000000  1
  U  U2  2  0.00000000  0.50000000  0.00000000  1
  Si  Si3  8  0.00000000  0.09980372  0.33573053  1
  Si  Si4  8  0.00000000  0.29981562  0.16423129  1
  Si  Si5  4  0.00000000  0.03315632  0.50000000  1
  Si  Si6  4  0.00000000  0.03317689  0.00000000  1
  Si  Si7  4  0.00000000  0.16466506  0.00000000  1
  Si  Si8  4  0.00000000  0.16890545  0.50000000  1
  Si  Si9  4  0.00000000  0.23308909  0.50000000  1
  Si  Si10  4  0.00000000  0.23318392  0.00000000  1
  Si  Si11  4  0.00000000  0.36466120  0.50000000  1
  Si  Si12  4  0.00000000  0.36889946  0.00000000  1
  Si  Si13  4  0.00000000  0.43316986  0.50000000  1
  Si  Si14  4  0.00000000  0.43318867  0.00000000  1
  Si  Si15  4  0.00000000  0.50000000  0.33631872  1
  W  W16  16  0.24986323  0.44999545  0.25348167  1
  W  W17  16  0.24999964  0.15000278  0.25000054  1
  W  W18  8  0.00000000  0.19995544  0.24466702  1
  W  W19  8  0.00000000  0.39995362  0.25533808  1
  W  W20  8  0.25000000  0.25000000  0.24644662  1
  W  W21  4  0.00000000  0.00000000  0.25328906  1
