# generated using pymatgen
data_Zr6USi6
_symmetry_space_group_name_H-M   Cmcm
_cell_length_a   8.80272696
_cell_length_b   81.63829242
_cell_length_c   5.92808063
_cell_angle_alpha   90.00000000
_cell_angle_beta   90.00000000
_cell_angle_gamma   90.00000000
_symmetry_Int_Tables_number   63
_chemical_formula_structural   Zr6USi6
_chemical_formula_sum   'Zr96 U16 Si96'
_cell_volume   4260.15347854
_cell_formula_units_Z   16
loop_
 _symmetry_equiv_pos_site_id
 _symmetry_equiv_pos_as_xyz
  1  'x, y, z'
  2  '-x, -y, -z'
  3  '-x, -y, z+1/2'
  4  'x, y, -z+1/2'
  5  'x, -y, -z'
  6  '-x, y, z'
  7  '-x, y, -z+1/2'
  8  'x, -y, z+1/2'
  9  'x+1/2, y+1/2, z'
  10  '-x+1/2, -y+1/2, -z'
  11  '-x+1/2, -y+1/2, z+1/2'
  12  'x+1/2, y+1/2, -z+1/2'
  13  'x+1/2, -y+1/2, -z'
  14  '-x+1/2, y+1/2, z'
  15  '-x+1/2, y+1/2, -z+1/2'
  16  'x+1/2, -y+1/2, z+1/2'
loop_
 _atom_site_type_symbol
 _atom_site_label
 _atom_site_symmetry_multiplicity
 _atom_site_fract_x
 _atom_site_fract_y
 _atom_site_fract_z
 _atom_site_occupancy
  Zr  Zr0  16  0.24605728  0.37505077  0.00006613  1
  Zr  Zr1  16  0.24606092  0.31242381  0.50004165  1
  Zr  Zr2  16  0.24798330  0.43742882  0.00035952  1
  Zr  Zr3  8  0.23689242  0.28115556  0.75000000  1
  Zr  Zr4  8  0.24004633  0.40625340  0.75000000  1
  Zr  Zr5  8  0.24388212  0.96871883  0.25000000  1
  Zr  Zr6  8  0.24529481  0.34374656  0.25000000  1
  Zr  Zr7  8  0.24876777  0.50000000  0.00000000  1
  Zr  Zr8  8  0.25000000  0.25000000  0.00000000  1
  U  U9  4  0.00000000  0.09385000  0.75000000  1
  U  U10  4  0.00000000  0.15623583  0.25000000  1
  U  U11  4  0.00000000  0.21840717  0.75000000  1
  U  U12  4  0.00000000  0.46876342  0.75000000  1
  Si  Si13  8  0.16816426  0.40631776  0.25000000  1
  Si  Si14  8  0.16849266  0.28101437  0.25000000  1
  Si  Si15  8  0.16901336  0.34375437  0.75000000  1
  Si  Si16  8  0.17174021  0.96855668  0.75000000  1
  Si  Si17  4  0.00000000  0.00974784  0.75000000  1
  Si  Si18  4  0.00000000  0.05379898  0.75000000  1
  Si  Si19  4  0.00000000  0.07468031  0.25000000  1
  Si  Si20  4  0.00000000  0.11399622  0.25000000  1
  Si  Si21  4  0.00000000  0.13546763  0.75000000  1
  Si  Si22  4  0.00000000  0.17701563  0.75000000  1
  Si  Si23  4  0.00000000  0.19883873  0.25000000  1
  Si  Si24  4  0.00000000  0.23725583  0.25000000  1
  Si  Si25  4  0.00000000  0.25829349  0.75000000  1
  Si  Si26  4  0.00000000  0.30262359  0.75000000  1
  Si  Si27  4  0.00000000  0.32279276  0.25000000  1
  Si  Si28  4  0.00000000  0.36468977  0.25000000  1
  Si  Si29  4  0.00000000  0.38497428  0.75000000  1
  Si  Si30  4  0.00000000  0.42853105  0.75000000  1
  Si  Si31  4  0.00000000  0.44939138  0.25000000  1
  Si  Si32  4  0.00000000  0.48892601  0.25000000  1
