# generated using pymatgen
data_U(AgPb)6
_symmetry_space_group_name_H-M   Cmmm
_cell_length_a   5.93941402
_cell_length_b   51.57881806
_cell_length_c   10.42464057
_cell_angle_alpha   90.00000000
_cell_angle_beta   90.00000000
_cell_angle_gamma   90.00000000
_symmetry_Int_Tables_number   65
_chemical_formula_structural   U(AgPb)6
_chemical_formula_sum   'U10 Ag60 Pb60'
_cell_volume   3193.56731941
_cell_formula_units_Z   10
loop_
 _symmetry_equiv_pos_site_id
 _symmetry_equiv_pos_as_xyz
  1  'x, y, z'
  2  '-x, -y, -z'
  3  '-x, -y, z'
  4  'x, y, -z'
  5  'x, -y, -z'
  6  '-x, y, z'
  7  '-x, y, -z'
  8  'x, -y, z'
  9  'x+1/2, y+1/2, z'
  10  '-x+1/2, -y+1/2, -z'
  11  '-x+1/2, -y+1/2, z'
  12  'x+1/2, y+1/2, -z'
  13  'x+1/2, -y+1/2, -z'
  14  '-x+1/2, y+1/2, z'
  15  '-x+1/2, y+1/2, -z'
  16  'x+1/2, -y+1/2, z'
loop_
 _atom_site_type_symbol
 _atom_site_label
 _atom_site_symmetry_multiplicity
 _atom_site_fract_x
 _atom_site_fract_y
 _atom_site_fract_z
 _atom_site_occupancy
  U  U0  4  0.00000000  0.09995938  0.50000000  1
  U  U1  4  0.00000000  0.29998616  0.00000000  1
  U  U2  2  0.00000000  0.50000000  0.50000000  1
  Ag  Ag3  16  0.24995751  0.45002082  0.25404413  1
  Ag  Ag4  16  0.24999711  0.35000113  0.25000039  1
  Ag  Ag5  8  0.00000000  0.19999269  0.24570851  1
  Ag  Ag6  8  0.00000000  0.40000026  0.25430893  1
  Ag  Ag7  8  0.25000000  0.25000000  0.24599873  1
  Ag  Ag8  4  0.00000000  0.00000000  0.25428648  1
  Pb  Pb9  8  0.00000000  0.09980399  0.17711432  1
  Pb  Pb10  8  0.00000000  0.29980958  0.32291195  1
  Pb  Pb11  4  0.00000000  0.03317622  0.00000000  1
  Pb  Pb12  4  0.00000000  0.03326565  0.50000000  1
  Pb  Pb13  4  0.00000000  0.16577267  0.50000000  1
  Pb  Pb14  4  0.00000000  0.16770176  0.00000000  1
  Pb  Pb15  4  0.00000000  0.23323390  0.50000000  1
  Pb  Pb16  4  0.00000000  0.23331994  0.00000000  1
  Pb  Pb17  4  0.00000000  0.36578280  0.00000000  1
  Pb  Pb18  4  0.00000000  0.36770602  0.50000000  1
  Pb  Pb19  4  0.00000000  0.43319949  0.00000000  1
  Pb  Pb20  4  0.00000000  0.43336576  0.50000000  1
  Pb  Pb21  4  0.00000000  0.50000000  0.17743118  1
