# generated using pymatgen
data_U(SnIr)6
_symmetry_space_group_name_H-M   Immm
_cell_length_a   5.56624443
_cell_length_b   9.05900057
_cell_length_c   28.90880015
_cell_angle_alpha   90.00000000
_cell_angle_beta   90.00000000
_cell_angle_gamma   90.00000000
_symmetry_Int_Tables_number   71
_chemical_formula_structural   U(SnIr)6
_chemical_formula_sum   'U6 Sn36 Ir36'
_cell_volume   1457.71501615
_cell_formula_units_Z   6
loop_
 _symmetry_equiv_pos_site_id
 _symmetry_equiv_pos_as_xyz
  1  'x, y, z'
  2  '-x, -y, -z'
  3  '-x, -y, z'
  4  'x, y, -z'
  5  'x, -y, -z'
  6  '-x, y, z'
  7  '-x, y, -z'
  8  'x, -y, z'
  9  'x+1/2, y+1/2, z+1/2'
  10  '-x+1/2, -y+1/2, -z+1/2'
  11  '-x+1/2, -y+1/2, z+1/2'
  12  'x+1/2, y+1/2, -z+1/2'
  13  'x+1/2, -y+1/2, -z+1/2'
  14  '-x+1/2, y+1/2, z+1/2'
  15  '-x+1/2, y+1/2, -z+1/2'
  16  'x+1/2, -y+1/2, z+1/2'
loop_
 _atom_site_type_symbol
 _atom_site_label
 _atom_site_symmetry_multiplicity
 _atom_site_fract_x
 _atom_site_fract_y
 _atom_site_fract_z
 _atom_site_occupancy
  U  U0  4  0.00000000  0.50000000  0.33301450  1
  U  U1  2  0.00000000  0.00000000  0.00000000  1
  Sn  Sn2  8  0.00000000  0.16990255  0.33315555  1
  Sn  Sn3  4  0.00000000  0.00000000  0.11134288  1
  Sn  Sn4  4  0.00000000  0.00000000  0.22222163  1
  Sn  Sn5  4  0.00000000  0.00000000  0.44425617  1
  Sn  Sn6  4  0.00000000  0.32926152  0.00000000  1
  Sn  Sn7  4  0.00000000  0.50000000  0.11084622  1
  Sn  Sn8  4  0.00000000  0.50000000  0.22234086  1
  Sn  Sn9  4  0.00000000  0.50000000  0.44437671  1
  Ir  Ir10  16  0.24999572  0.24635437  0.08333740  1
  Ir  Ir11  8  0.00000000  0.24555170  0.16673700  1
  Ir  Ir12  8  0.25000000  0.25000000  0.25000000  1
  Ir  Ir13  4  0.00000000  0.25309995  0.50000000  1
