# generated using pymatgen
data_U(NiPb)6
_symmetry_space_group_name_H-M   Cmmm
_cell_length_a   5.51306842
_cell_length_b   47.73193233
_cell_length_c   9.42686178
_cell_angle_alpha   90.00000000
_cell_angle_beta   90.00000000
_cell_angle_gamma   90.00000000
_symmetry_Int_Tables_number   65
_chemical_formula_structural   U(NiPb)6
_chemical_formula_sum   'U10 Ni60 Pb60'
_cell_volume   2480.67310319
_cell_formula_units_Z   10
loop_
 _symmetry_equiv_pos_site_id
 _symmetry_equiv_pos_as_xyz
  1  'x, y, z'
  2  '-x, -y, -z'
  3  '-x, -y, z'
  4  'x, y, -z'
  5  'x, -y, -z'
  6  '-x, y, z'
  7  '-x, y, -z'
  8  'x, -y, z'
  9  'x+1/2, y+1/2, z'
  10  '-x+1/2, -y+1/2, -z'
  11  '-x+1/2, -y+1/2, z'
  12  'x+1/2, y+1/2, -z'
  13  'x+1/2, -y+1/2, -z'
  14  '-x+1/2, y+1/2, z'
  15  '-x+1/2, y+1/2, -z'
  16  'x+1/2, -y+1/2, z'
loop_
 _atom_site_type_symbol
 _atom_site_label
 _atom_site_symmetry_multiplicity
 _atom_site_fract_x
 _atom_site_fract_y
 _atom_site_fract_z
 _atom_site_occupancy
  U  U0  4  0.00000000  0.19953960  0.00000000  1
  U  U1  4  0.00000000  0.39945387  0.50000000  1
  U  U2  2  0.00000000  0.00000000  0.50000000  1
  Ni  Ni3  16  0.24974320  0.04996848  0.25740237  1
  Ni  Ni4  16  0.24997724  0.35000396  0.24998863  1
  Ni  Ni5  8  0.00000000  0.09998469  0.25842793  1
  Ni  Ni6  8  0.00000000  0.29998342  0.24148894  1
  Ni  Ni7  8  0.25000000  0.25000000  0.24253951  1
  Ni  Ni8  4  0.00000000  0.50000000  0.25745308  1
  Pb  Pb9  8  0.00000000  0.20027871  0.32308695  1
  Pb  Pb10  8  0.00000000  0.40032854  0.17683330  1
  Pb  Pb11  4  0.00000000  0.00000000  0.17607217  1
  Pb  Pb12  4  0.00000000  0.06631518  0.00000000  1
  Pb  Pb13  4  0.00000000  0.06700128  0.50000000  1
  Pb  Pb14  4  0.00000000  0.13225136  0.00000000  1
  Pb  Pb15  4  0.00000000  0.13445286  0.50000000  1
  Pb  Pb16  4  0.00000000  0.26637080  0.50000000  1
  Pb  Pb17  4  0.00000000  0.26687895  0.00000000  1
  Pb  Pb18  4  0.00000000  0.33224930  0.50000000  1
  Pb  Pb19  4  0.00000000  0.33442732  0.00000000  1
  Pb  Pb20  4  0.00000000  0.46655787  0.50000000  1
  Pb  Pb21  4  0.00000000  0.46674138  0.00000000  1
