# generated using pymatgen
data_U(CoGe)6
_symmetry_space_group_name_H-M   Cmcm
_cell_length_a   7.88169393
_cell_length_b   34.99299753
_cell_length_c   5.01400823
_cell_angle_alpha   90.00000000
_cell_angle_beta   90.00000000
_cell_angle_gamma   90.00000000
_symmetry_Int_Tables_number   63
_chemical_formula_structural   U(CoGe)6
_chemical_formula_sum   'U8 Co48 Ge48'
_cell_volume   1382.88400767
_cell_formula_units_Z   8
loop_
 _symmetry_equiv_pos_site_id
 _symmetry_equiv_pos_as_xyz
  1  'x, y, z'
  2  '-x, -y, -z'
  3  '-x, -y, z+1/2'
  4  'x, y, -z+1/2'
  5  'x, -y, -z'
  6  '-x, y, z'
  7  '-x, y, -z+1/2'
  8  'x, -y, z+1/2'
  9  'x+1/2, y+1/2, z'
  10  '-x+1/2, -y+1/2, -z'
  11  '-x+1/2, -y+1/2, z+1/2'
  12  'x+1/2, y+1/2, -z+1/2'
  13  'x+1/2, -y+1/2, -z'
  14  '-x+1/2, y+1/2, z'
  15  '-x+1/2, y+1/2, -z+1/2'
  16  'x+1/2, -y+1/2, z+1/2'
loop_
 _atom_site_type_symbol
 _atom_site_label
 _atom_site_symmetry_multiplicity
 _atom_site_fract_x
 _atom_site_fract_y
 _atom_site_fract_z
 _atom_site_occupancy
  U  U0  4  0.00000000  0.30475613  0.75000000  1
  U  U1  4  0.00000000  0.43506047  0.25000000  1
  Co  Co2  16  0.24845789  0.62378271  0.50531827  1
  Co  Co3  8  0.23864973  0.68797042  0.75000000  1
  Co  Co4  8  0.24046776  0.43734440  0.75000000  1
  Co  Co5  8  0.24727656  0.50000000  0.00000000  1
  Co  Co6  8  0.25000000  0.25000000  0.00000000  1
  Ge  Ge7  8  0.15452941  0.06107349  0.75000000  1
  Ge  Ge8  8  0.15807670  0.18503620  0.25000000  1
  Ge  Ge9  4  0.00000000  0.02132962  0.25000000  1
  Ge  Ge10  4  0.00000000  0.10282407  0.25000000  1
  Ge  Ge11  4  0.00000000  0.14452168  0.75000000  1
  Ge  Ge12  4  0.00000000  0.22322530  0.75000000  1
  Ge  Ge13  4  0.00000000  0.26516654  0.25000000  1
  Ge  Ge14  4  0.00000000  0.35234414  0.25000000  1
  Ge  Ge15  4  0.00000000  0.39219887  0.75000000  1
  Ge  Ge16  4  0.00000000  0.47980536  0.75000000  1
