# generated using pymatgen
data_U(SnAu)6
_symmetry_space_group_name_H-M   Cmcm
_cell_length_a   9.59882678
_cell_length_b   81.91473034
_cell_length_c   5.87251851
_cell_angle_alpha   90.00000000
_cell_angle_beta   90.00000000
_cell_angle_gamma   90.00000000
_symmetry_Int_Tables_number   63
_chemical_formula_structural   U(SnAu)6
_chemical_formula_sum   'U16 Sn96 Au96'
_cell_volume   4617.47502400
_cell_formula_units_Z   16
loop_
 _symmetry_equiv_pos_site_id
 _symmetry_equiv_pos_as_xyz
  1  'x, y, z'
  2  '-x, -y, -z'
  3  '-x, -y, z+1/2'
  4  'x, y, -z+1/2'
  5  'x, -y, -z'
  6  '-x, y, z'
  7  '-x, y, -z+1/2'
  8  'x, -y, z+1/2'
  9  'x+1/2, y+1/2, z'
  10  '-x+1/2, -y+1/2, -z'
  11  '-x+1/2, -y+1/2, z+1/2'
  12  'x+1/2, y+1/2, -z+1/2'
  13  'x+1/2, -y+1/2, -z'
  14  '-x+1/2, y+1/2, z'
  15  '-x+1/2, y+1/2, -z+1/2'
  16  'x+1/2, -y+1/2, z+1/2'
loop_
 _atom_site_type_symbol
 _atom_site_label
 _atom_site_symmetry_multiplicity
 _atom_site_fract_x
 _atom_site_fract_y
 _atom_site_fract_z
 _atom_site_occupancy
  U  U0  4  0.00000000  0.03088368  0.25000000  1
  U  U1  4  0.00000000  0.28175739  0.25000000  1
  U  U2  4  0.00000000  0.34378275  0.75000000  1
  U  U3  4  0.00000000  0.40568453  0.25000000  1
  Sn  Sn4  8  0.16459691  0.46869284  0.75000000  1
  Sn  Sn5  8  0.16674367  0.21904416  0.75000000  1
  Sn  Sn6  8  0.16755961  0.09358026  0.75000000  1
  Sn  Sn7  8  0.16806885  0.15624957  0.25000000  1
  Sn  Sn8  4  0.00000000  0.01035135  0.75000000  1
  Sn  Sn9  4  0.00000000  0.05124999  0.75000000  1
  Sn  Sn10  4  0.00000000  0.07193526  0.25000000  1
  Sn  Sn11  4  0.00000000  0.11447968  0.25000000  1
  Sn  Sn12  4  0.00000000  0.13540038  0.75000000  1
  Sn  Sn13  4  0.00000000  0.17717358  0.75000000  1
  Sn  Sn14  4  0.00000000  0.19814884  0.25000000  1
  Sn  Sn15  4  0.00000000  0.24110043  0.25000000  1
  Sn  Sn16  4  0.00000000  0.26196097  0.75000000  1
  Sn  Sn17  4  0.00000000  0.30232111  0.75000000  1
  Sn  Sn18  4  0.00000000  0.32298483  0.25000000  1
  Sn  Sn19  4  0.00000000  0.36451749  0.25000000  1
  Sn  Sn20  4  0.00000000  0.38531105  0.75000000  1
  Sn  Sn21  4  0.00000000  0.42597570  0.75000000  1
  Sn  Sn22  4  0.00000000  0.44676750  0.25000000  1
  Sn  Sn23  4  0.00000000  0.48958337  0.25000000  1
  Au  Au24  16  0.24379608  0.06247444  0.00067636  1
  Au  Au25  16  0.24968524  0.18748930  0.50008687  1
  Au  Au26  16  0.24985075  0.37501229  0.00032020  1
  Au  Au27  8  0.23846384  0.03126229  0.75000000  1
  Au  Au28  8  0.23856471  0.00000000  0.00000000  1
  Au  Au29  8  0.24730543  0.21871965  0.25000000  1
  Au  Au30  8  0.24964342  0.40617148  0.75000000  1
  Au  Au31  8  0.24985677  0.34375721  0.25000000  1
  Au  Au32  8  0.25000000  0.25000000  0.00000000  1
