# generated using pymatgen
data_U(SiIr)6
_symmetry_space_group_name_H-M   Cmcm
_cell_length_a   7.81862894
_cell_length_b   74.95327534
_cell_length_c   5.40587550
_cell_angle_alpha   90.00000000
_cell_angle_beta   90.00000000
_cell_angle_gamma   90.00000000
_symmetry_Int_Tables_number   63
_chemical_formula_structural   U(SiIr)6
_chemical_formula_sum   'U16 Si96 Ir96'
_cell_volume   3168.01520463
_cell_formula_units_Z   16
loop_
 _symmetry_equiv_pos_site_id
 _symmetry_equiv_pos_as_xyz
  1  'x, y, z'
  2  '-x, -y, -z'
  3  '-x, -y, z+1/2'
  4  'x, y, -z+1/2'
  5  'x, -y, -z'
  6  '-x, y, z'
  7  '-x, y, -z+1/2'
  8  'x, -y, z+1/2'
  9  'x+1/2, y+1/2, z'
  10  '-x+1/2, -y+1/2, -z'
  11  '-x+1/2, -y+1/2, z+1/2'
  12  'x+1/2, y+1/2, -z+1/2'
  13  'x+1/2, -y+1/2, -z'
  14  '-x+1/2, y+1/2, z'
  15  '-x+1/2, y+1/2, -z+1/2'
  16  'x+1/2, -y+1/2, z+1/2'
loop_
 _atom_site_type_symbol
 _atom_site_label
 _atom_site_symmetry_multiplicity
 _atom_site_fract_x
 _atom_site_fract_y
 _atom_site_fract_z
 _atom_site_occupancy
  U  U0  4  0.00000000  0.03119215  0.25000000  1
  U  U1  4  0.00000000  0.28150857  0.25000000  1
  U  U2  4  0.00000000  0.34374965  0.75000000  1
  U  U3  4  0.00000000  0.40618947  0.25000000  1
  Si  Si4  8  0.15799652  0.21885288  0.75000000  1
  Si  Si5  8  0.15804750  0.09381408  0.75000000  1
  Si  Si6  8  0.15813375  0.15621453  0.25000000  1
  Si  Si7  8  0.15937022  0.46878442  0.75000000  1
  Si  Si8  4  0.00000000  0.01041083  0.75000000  1
  Si  Si9  4  0.00000000  0.05153482  0.75000000  1
  Si  Si10  4  0.00000000  0.07238097  0.25000000  1
  Si  Si11  4  0.00000000  0.11452975  0.25000000  1
  Si  Si12  4  0.00000000  0.13542160  0.75000000  1
  Si  Si13  4  0.00000000  0.17706978  0.75000000  1
  Si  Si14  4  0.00000000  0.19792676  0.25000000  1
  Si  Si15  4  0.00000000  0.24041331  0.25000000  1
  Si  Si16  4  0.00000000  0.26110952  0.75000000  1
  Si  Si17  4  0.00000000  0.30210287  0.75000000  1
  Si  Si18  4  0.00000000  0.32294560  0.25000000  1
  Si  Si19  4  0.00000000  0.36456989  0.25000000  1
  Si  Si20  4  0.00000000  0.38541805  0.75000000  1
  Si  Si21  4  0.00000000  0.42645535  0.75000000  1
  Si  Si22  4  0.00000000  0.44727184  0.25000000  1
  Si  Si23  4  0.00000000  0.48959615  0.25000000  1
  Ir  Ir24  16  0.24385538  0.18751581  0.00005588  1
  Ir  Ir25  16  0.24394681  0.12500351  0.50002601  1
  Ir  Ir26  16  0.24736730  0.06251362  0.50001351  1
  Ir  Ir27  8  0.24179890  0.21879073  0.25000000  1
  Ir  Ir28  8  0.24402461  0.15625641  0.75000000  1
  Ir  Ir29  8  0.24419803  0.09375452  0.25000000  1
  Ir  Ir30  8  0.24923766  0.50000000  0.00000000  1
  Ir  Ir31  8  0.24962567  0.46873344  0.25000000  1
  Ir  Ir32  8  0.25000000  0.25000000  0.00000000  1
