# generated using pymatgen
data_U(AgGe)6
_symmetry_space_group_name_H-M   Cmcm
_cell_length_a   8.78955242
_cell_length_b   79.93023893
_cell_length_c   5.76710496
_cell_angle_alpha   90.00000000
_cell_angle_beta   90.00000000
_cell_angle_gamma   90.00000000
_symmetry_Int_Tables_number   63
_chemical_formula_structural   U(AgGe)6
_chemical_formula_sum   'U16 Ag96 Ge96'
_cell_volume   4051.68550438
_cell_formula_units_Z   16
loop_
 _symmetry_equiv_pos_site_id
 _symmetry_equiv_pos_as_xyz
  1  'x, y, z'
  2  '-x, -y, -z'
  3  '-x, -y, z+1/2'
  4  'x, y, -z+1/2'
  5  'x, -y, -z'
  6  '-x, y, z'
  7  '-x, y, -z+1/2'
  8  'x, -y, z+1/2'
  9  'x+1/2, y+1/2, z'
  10  '-x+1/2, -y+1/2, -z'
  11  '-x+1/2, -y+1/2, z+1/2'
  12  'x+1/2, y+1/2, -z+1/2'
  13  'x+1/2, -y+1/2, -z'
  14  '-x+1/2, y+1/2, z'
  15  '-x+1/2, y+1/2, -z+1/2'
  16  'x+1/2, -y+1/2, z+1/2'
loop_
 _atom_site_type_symbol
 _atom_site_label
 _atom_site_symmetry_multiplicity
 _atom_site_fract_x
 _atom_site_fract_y
 _atom_site_fract_z
 _atom_site_occupancy
  U  U0  4  0.00000000  0.09369924  0.25000000  1
  U  U1  4  0.00000000  0.15622354  0.75000000  1
  U  U2  4  0.00000000  0.21859163  0.25000000  1
  U  U3  4  0.00000000  0.46862828  0.25000000  1
  Ag  Ag4  16  0.24691980  0.37504022  0.50014209  1
  Ag  Ag5  16  0.24709203  0.31242541  0.50009607  1
  Ag  Ag6  16  0.24728368  0.43738870  0.50050779  1
  Ag  Ag7  8  0.24279345  0.28118668  0.25000000  1
  Ag  Ag8  8  0.24557008  0.34374009  0.75000000  1
  Ag  Ag9  8  0.24561758  0.40626443  0.25000000  1
  Ag  Ag10  8  0.24765401  0.50000000  0.00000000  1
  Ag  Ag11  8  0.24898288  0.46869921  0.75000000  1
  Ag  Ag12  8  0.25000000  0.25000000  0.00000000  1
  Ge  Ge13  8  0.13897563  0.40593617  0.75000000  1
  Ge  Ge14  8  0.13905029  0.28140333  0.75000000  1
  Ge  Ge15  8  0.13925819  0.03085757  0.75000000  1
  Ge  Ge16  8  0.13979651  0.34377899  0.25000000  1
  Ge  Ge17  4  0.00000000  0.00966361  0.25000000  1
  Ge  Ge18  4  0.00000000  0.05322272  0.25000000  1
  Ge  Ge19  4  0.00000000  0.07388834  0.75000000  1
  Ge  Ge20  4  0.00000000  0.11425838  0.75000000  1
  Ge  Ge21  4  0.00000000  0.13552558  0.25000000  1
  Ge  Ge22  4  0.00000000  0.17687478  0.25000000  1
  Ge  Ge23  4  0.00000000  0.19826417  0.75000000  1
  Ge  Ge24  4  0.00000000  0.23825885  0.75000000  1
  Ge  Ge25  4  0.00000000  0.25877098  0.25000000  1
  Ge  Ge26  4  0.00000000  0.30249555  0.25000000  1
  Ge  Ge27  4  0.00000000  0.32222892  0.75000000  1
  Ge  Ge28  4  0.00000000  0.36522024  0.75000000  1
  Ge  Ge29  4  0.00000000  0.38528886  0.25000000  1
  Ge  Ge30  4  0.00000000  0.42822642  0.25000000  1
  Ge  Ge31  4  0.00000000  0.44879593  0.75000000  1
  Ge  Ge32  4  0.00000000  0.48938506  0.75000000  1
