# generated using pymatgen
data_U(TcPb)6
_symmetry_space_group_name_H-M   Cmcm
_cell_length_a   10.43089743
_cell_length_b   77.74560222
_cell_length_c   5.46040481
_cell_angle_alpha   90.00000000
_cell_angle_beta   90.00000000
_cell_angle_gamma   90.00000000
_symmetry_Int_Tables_number   63
_chemical_formula_structural   U(TcPb)6
_chemical_formula_sum   'U16 Tc96 Pb96'
_cell_volume   4428.15024067
_cell_formula_units_Z   16
loop_
 _symmetry_equiv_pos_site_id
 _symmetry_equiv_pos_as_xyz
  1  'x, y, z'
  2  '-x, -y, -z'
  3  '-x, -y, z+1/2'
  4  'x, y, -z+1/2'
  5  'x, -y, -z'
  6  '-x, y, z'
  7  '-x, y, -z+1/2'
  8  'x, -y, z+1/2'
  9  'x+1/2, y+1/2, z'
  10  '-x+1/2, -y+1/2, -z'
  11  '-x+1/2, -y+1/2, z+1/2'
  12  'x+1/2, y+1/2, -z+1/2'
  13  'x+1/2, -y+1/2, -z'
  14  '-x+1/2, y+1/2, z'
  15  '-x+1/2, y+1/2, -z+1/2'
  16  'x+1/2, -y+1/2, z+1/2'
loop_
 _atom_site_type_symbol
 _atom_site_label
 _atom_site_symmetry_multiplicity
 _atom_site_fract_x
 _atom_site_fract_y
 _atom_site_fract_z
 _atom_site_occupancy
  U  U0  4  0.00000000  0.09409745  0.75000000  1
  U  U1  4  0.00000000  0.15633710  0.25000000  1
  U  U2  4  0.00000000  0.21887238  0.75000000  1
  U  U3  4  0.00000000  0.46829043  0.75000000  1
  Tc  Tc4  16  0.23982517  0.18736371  0.50224667  1
  Tc  Tc5  16  0.24006490  0.87567236  0.51594301  1
  Tc  Tc6  16  0.24291769  0.43850343  0.53016074  1
  Tc  Tc7  8  0.23018712  0.53218224  0.75000000  1
  Tc  Tc8  8  0.23416165  0.50000000  0.00000000  1
  Tc  Tc9  8  0.23548210  0.21899130  0.25000000  1
  Tc  Tc10  8  0.23615829  0.90427951  0.75000000  1
  Tc  Tc11  8  0.23715602  0.15687075  0.75000000  1
  Tc  Tc12  8  0.25000000  0.25000000  0.00000000  1
  Pb  Pb13  8  0.17326825  0.96983994  0.75000000  1
  Pb  Pb14  8  0.17496147  0.34368155  0.75000000  1
  Pb  Pb15  8  0.17574434  0.28142529  0.25000000  1
  Pb  Pb16  8  0.17772687  0.59347260  0.75000000  1
  Pb  Pb17  4  0.00000000  0.01033867  0.75000000  1
  Pb  Pb18  4  0.00000000  0.05156572  0.75000000  1
  Pb  Pb19  4  0.00000000  0.07239482  0.25000000  1
  Pb  Pb20  4  0.00000000  0.11463918  0.25000000  1
  Pb  Pb21  4  0.00000000  0.13550658  0.75000000  1
  Pb  Pb22  4  0.00000000  0.17712647  0.75000000  1
  Pb  Pb23  4  0.00000000  0.19800951  0.25000000  1
  Pb  Pb24  4  0.00000000  0.24011585  0.25000000  1
  Pb  Pb25  4  0.00000000  0.26098578  0.75000000  1
  Pb  Pb26  4  0.00000000  0.30212984  0.75000000  1
  Pb  Pb27  4  0.00000000  0.32306065  0.25000000  1
  Pb  Pb28  4  0.00000000  0.36447062  0.25000000  1
  Pb  Pb29  4  0.00000000  0.38521587  0.75000000  1
  Pb  Pb30  4  0.00000000  0.42587899  0.75000000  1
  Pb  Pb31  4  0.00000000  0.44686758  0.25000000  1
  Pb  Pb32  4  0.00000000  0.48931889  0.25000000  1
