# generated using pymatgen
data_Hf6UPb6
_symmetry_space_group_name_H-M   Cmcm
_cell_length_a   10.39396720
_cell_length_b   41.98235735
_cell_length_c   6.03267444
_cell_angle_alpha   90.00000000
_cell_angle_beta   90.00000000
_cell_angle_gamma   90.00000000
_symmetry_Int_Tables_number   63
_chemical_formula_structural   Hf6UPb6
_chemical_formula_sum   'Hf48 U8 Pb48'
_cell_volume   2632.43739720
_cell_formula_units_Z   8
loop_
 _symmetry_equiv_pos_site_id
 _symmetry_equiv_pos_as_xyz
  1  'x, y, z'
  2  '-x, -y, -z'
  3  '-x, -y, z+1/2'
  4  'x, y, -z+1/2'
  5  'x, -y, -z'
  6  '-x, y, z'
  7  '-x, y, -z+1/2'
  8  'x, -y, z+1/2'
  9  'x+1/2, y+1/2, z'
  10  '-x+1/2, -y+1/2, -z'
  11  '-x+1/2, -y+1/2, z+1/2'
  12  'x+1/2, y+1/2, -z+1/2'
  13  'x+1/2, -y+1/2, -z'
  14  '-x+1/2, y+1/2, z'
  15  '-x+1/2, y+1/2, -z+1/2'
  16  'x+1/2, -y+1/2, z+1/2'
loop_
 _atom_site_type_symbol
 _atom_site_label
 _atom_site_symmetry_multiplicity
 _atom_site_fract_x
 _atom_site_fract_y
 _atom_site_fract_z
 _atom_site_occupancy
  Hf  Hf0  16  0.24345424  0.87513166  0.50103310  1
  Hf  Hf1  8  0.24158897  0.00000000  0.00000000  1
  Hf  Hf2  8  0.24212324  0.81242983  0.75000000  1
  Hf  Hf3  8  0.24279201  0.06266973  0.75000000  1
  Hf  Hf4  8  0.25000000  0.25000000  0.00000000  1
  U  U5  4  0.00000000  0.06327429  0.25000000  1
  U  U6  4  0.00000000  0.18819449  0.75000000  1
  Pb  Pb7  8  0.16905281  0.31298652  0.25000000  1
  Pb  Pb8  8  0.17047147  0.43789490  0.75000000  1
  Pb  Pb9  4  0.00000000  0.02168453  0.75000000  1
  Pb  Pb10  4  0.00000000  0.10473613  0.75000000  1
  Pb  Pb11  4  0.00000000  0.14634577  0.25000000  1
  Pb  Pb12  4  0.00000000  0.22911661  0.25000000  1
  Pb  Pb13  4  0.00000000  0.27151958  0.75000000  1
  Pb  Pb14  4  0.00000000  0.35431751  0.75000000  1
  Pb  Pb15  4  0.00000000  0.39647736  0.25000000  1
  Pb  Pb16  4  0.00000000  0.47912544  0.25000000  1
