# generated using pymatgen
data_U(CoSn)6
_symmetry_space_group_name_H-M   Immm
_cell_length_a   5.29411799
_cell_length_b   8.81998493
_cell_length_c   27.46732575
_cell_angle_alpha   90.00000000
_cell_angle_beta   90.00000000
_cell_angle_gamma   90.00000000
_symmetry_Int_Tables_number   71
_chemical_formula_structural   U(CoSn)6
_chemical_formula_sum   'U6 Co36 Sn36'
_cell_volume   1282.56043281
_cell_formula_units_Z   6
loop_
 _symmetry_equiv_pos_site_id
 _symmetry_equiv_pos_as_xyz
  1  'x, y, z'
  2  '-x, -y, -z'
  3  '-x, -y, z'
  4  'x, y, -z'
  5  'x, -y, -z'
  6  '-x, y, z'
  7  '-x, y, -z'
  8  'x, -y, z'
  9  'x+1/2, y+1/2, z+1/2'
  10  '-x+1/2, -y+1/2, -z+1/2'
  11  '-x+1/2, -y+1/2, z+1/2'
  12  'x+1/2, y+1/2, -z+1/2'
  13  'x+1/2, -y+1/2, -z+1/2'
  14  '-x+1/2, y+1/2, z+1/2'
  15  '-x+1/2, y+1/2, -z+1/2'
  16  'x+1/2, -y+1/2, z+1/2'
loop_
 _atom_site_type_symbol
 _atom_site_label
 _atom_site_symmetry_multiplicity
 _atom_site_fract_x
 _atom_site_fract_y
 _atom_site_fract_z
 _atom_site_occupancy
  U  U0  4  0.00000000  0.00000000  0.16983799  1
  U  U1  2  0.00000000  0.50000000  0.50000000  1
  Co  Co2  16  0.24928430  0.25153660  0.41685039  1
  Co  Co3  8  0.00000000  0.25452521  0.33324075  1
  Co  Co4  8  0.25000000  0.25000000  0.25000000  1
  Co  Co5  4  0.00000000  0.24799160  0.00000000  1
  Sn  Sn6  8  0.00000000  0.33412638  0.16616058  1
  Sn  Sn7  4  0.00000000  0.00000000  0.05635582  1
  Sn  Sn8  4  0.00000000  0.00000000  0.28173407  1
  Sn  Sn9  4  0.00000000  0.00000000  0.39033192  1
  Sn  Sn10  4  0.00000000  0.16484830  0.50000000  1
  Sn  Sn11  4  0.00000000  0.50000000  0.05538983  1
  Sn  Sn12  4  0.00000000  0.50000000  0.27412084  1
  Sn  Sn13  4  0.00000000  0.50000000  0.38801741  1
