# generated using pymatgen
data_U(CoPb)6
_symmetry_space_group_name_H-M   Cmcm
_cell_length_a   9.16219998
_cell_length_b   75.26293791
_cell_length_c   5.43141172
_cell_angle_alpha   90.00000000
_cell_angle_beta   90.00000000
_cell_angle_gamma   90.00000000
_symmetry_Int_Tables_number   63
_chemical_formula_structural   U(CoPb)6
_chemical_formula_sum   'U16 Co96 Pb96'
_cell_volume   3745.36078244
_cell_formula_units_Z   16
loop_
 _symmetry_equiv_pos_site_id
 _symmetry_equiv_pos_as_xyz
  1  'x, y, z'
  2  '-x, -y, -z'
  3  '-x, -y, z+1/2'
  4  'x, y, -z+1/2'
  5  'x, -y, -z'
  6  '-x, y, z'
  7  '-x, y, -z+1/2'
  8  'x, -y, z+1/2'
  9  'x+1/2, y+1/2, z'
  10  '-x+1/2, -y+1/2, -z'
  11  '-x+1/2, -y+1/2, z+1/2'
  12  'x+1/2, y+1/2, -z+1/2'
  13  'x+1/2, -y+1/2, -z'
  14  '-x+1/2, y+1/2, z'
  15  '-x+1/2, y+1/2, -z+1/2'
  16  'x+1/2, -y+1/2, z+1/2'
loop_
 _atom_site_type_symbol
 _atom_site_label
 _atom_site_symmetry_multiplicity
 _atom_site_fract_x
 _atom_site_fract_y
 _atom_site_fract_z
 _atom_site_occupancy
  U  U0  4  0.00000000  0.03168932  0.25000000  1
  U  U1  4  0.00000000  0.28083872  0.25000000  1
  U  U2  4  0.00000000  0.34377414  0.75000000  1
  U  U3  4  0.00000000  0.40659245  0.25000000  1
  Co  Co4  16  0.24478951  0.37496702  0.50034491  1
  Co  Co5  16  0.24504624  0.31252026  0.50033124  1
  Co  Co6  16  0.24689101  0.06233645  0.00170830  1
  Co  Co7  8  0.24008343  0.03131949  0.75000000  1
  Co  Co8  8  0.24114071  0.00000000  0.00000000  1
  Co  Co9  8  0.24464677  0.34374849  0.25000000  1
  Co  Co10  8  0.24473903  0.28123454  0.75000000  1
  Co  Co11  8  0.24481426  0.40626129  0.75000000  1
  Co  Co12  8  0.25000000  0.25000000  0.00000000  1
  Pb  Pb13  8  0.17786419  0.15626431  0.25000000  1
  Pb  Pb14  8  0.17826460  0.21864213  0.75000000  1
  Pb  Pb15  8  0.17827339  0.09390312  0.75000000  1
  Pb  Pb16  8  0.17853134  0.46892816  0.75000000  1
  Pb  Pb17  4  0.00000000  0.01043757  0.75000000  1
  Pb  Pb18  4  0.00000000  0.05247491  0.75000000  1
  Pb  Pb19  4  0.00000000  0.07326593  0.25000000  1
  Pb  Pb20  4  0.00000000  0.11467912  0.25000000  1
  Pb  Pb21  4  0.00000000  0.13543771  0.75000000  1
  Pb  Pb22  4  0.00000000  0.17709679  0.75000000  1
  Pb  Pb23  4  0.00000000  0.19793559  0.25000000  1
  Pb  Pb24  4  0.00000000  0.23942624  0.25000000  1
  Pb  Pb25  4  0.00000000  0.26017957  0.75000000  1
  Pb  Pb26  4  0.00000000  0.30195961  0.75000000  1
  Pb  Pb27  4  0.00000000  0.32279541  0.25000000  1
  Pb  Pb28  4  0.00000000  0.36467223  0.25000000  1
  Pb  Pb29  4  0.00000000  0.38560058  0.75000000  1
  Pb  Pb30  4  0.00000000  0.42745905  0.75000000  1
  Pb  Pb31  4  0.00000000  0.44812227  0.25000000  1
  Pb  Pb32  4  0.00000000  0.48962684  0.25000000  1
