# generated using pymatgen
data_U(RuPb)6
_symmetry_space_group_name_H-M   P2_1/m
_cell_length_a   9.81099386
_cell_length_b   5.11383110
_cell_length_c   11.50600370
_cell_angle_alpha   90.00000000
_cell_angle_beta   115.16831365
_cell_angle_gamma   90.00000000
_symmetry_Int_Tables_number   11
_chemical_formula_structural   U(RuPb)6
_chemical_formula_sum   'U2 Ru12 Pb12'
_cell_volume   522.47126243
_cell_formula_units_Z   2
loop_
 _symmetry_equiv_pos_site_id
 _symmetry_equiv_pos_as_xyz
  1  'x, y, z'
  2  '-x, -y, -z'
  3  '-x, y+1/2, -z'
  4  'x, -y+1/2, z'
loop_
 _atom_site_type_symbol
 _atom_site_label
 _atom_site_symmetry_multiplicity
 _atom_site_fract_x
 _atom_site_fract_y
 _atom_site_fract_z
 _atom_site_occupancy
  U  U0  2  0.13127402  0.75000000  0.76254589  1
  Ru  Ru1  4  0.24503897  0.50000081  0.49999902  1
  Ru  Ru2  2  0.00000000  0.00000000  0.00000000  1
  Ru  Ru3  2  0.08372888  0.75000000  0.24280677  1
  Ru  Ru4  2  0.34091456  0.25000000  0.75718535  1
  Ru  Ru5  2  0.50000000  0.00000000  0.00000000  1
  Pb  Pb6  2  0.04262448  0.25000000  0.58525408  1
  Pb  Pb7  2  0.19638259  0.25000000  0.25539197  1
  Pb  Pb8  2  0.21583569  0.25000000  0.93168502  1
  Pb  Pb9  2  0.30146293  0.75000000  0.10292235  1
  Pb  Pb10  2  0.44099149  0.75000000  0.74460630  1
  Pb  Pb11  2  0.45720028  0.75000000  0.41439649  1
