# generated using pymatgen
data_U(SiPd)6
_symmetry_space_group_name_H-M   C2/m
_cell_length_a   48.39760041
_cell_length_b   5.57811110
_cell_length_c   7.73402489
_cell_angle_alpha   90.00000000
_cell_angle_beta   90.89146415
_cell_angle_gamma   90.00000000
_symmetry_Int_Tables_number   12
_chemical_formula_structural   U(SiPd)6
_chemical_formula_sum   'U10 Si60 Pd60'
_cell_volume   2087.68026155
_cell_formula_units_Z   10
loop_
 _symmetry_equiv_pos_site_id
 _symmetry_equiv_pos_as_xyz
  1  'x, y, z'
  2  '-x, -y, -z'
  3  '-x, y, -z'
  4  'x, -y, z'
  5  'x+1/2, y+1/2, z'
  6  '-x+1/2, -y+1/2, -z'
  7  '-x+1/2, y+1/2, -z'
  8  'x+1/2, -y+1/2, z'
loop_
 _atom_site_type_symbol
 _atom_site_label
 _atom_site_symmetry_multiplicity
 _atom_site_fract_x
 _atom_site_fract_y
 _atom_site_fract_z
 _atom_site_occupancy
  U  U0  4  0.09999838  0.50000000  0.49987082  1
  U  U1  4  0.20001569  0.00000000  0.00015383  1
  U  U2  2  0.00000000  0.00000000  0.50000000  1
  Si  Si3  4  0.00012993  0.00000000  0.14560614  1
  Si  Si4  4  0.03321149  0.50000000  0.49994024  1
  Si  Si5  4  0.03324679  0.50000000  0.99992181  1
  Si  Si6  4  0.06677663  0.00000000  0.50001044  1
  Si  Si7  4  0.06688586  0.00000000  0.00001915  1
  Si  Si8  4  0.09995212  0.50000000  0.85452392  1
  Si  Si9  4  0.10017031  0.50000000  0.14536811  1
  Si  Si10  4  0.13140301  0.00000000  0.50002214  1
  Si  Si11  4  0.13514967  0.00000000  0.00011282  1
  Si  Si12  4  0.16485311  0.50000000  0.49988637  1
  Si  Si13  4  0.16860226  0.50000000  0.99997643  1
  Si  Si14  4  0.19985371  0.00000000  0.35464387  1
  Si  Si15  4  0.20007033  0.00000000  0.64546614  1
  Si  Si16  4  0.23313308  0.50000000  0.49998547  1
  Si  Si17  4  0.23320388  0.50000000  0.99999030  1
  Pd  Pd18  8  0.04990526  0.24997117  0.24345634  1
  Pd  Pd19  8  0.05004710  0.24978587  0.75653782  1
  Pd  Pd20  8  0.14999540  0.25000309  0.75000509  1
  Pd  Pd21  8  0.14999832  0.25000628  0.24999586  1
  Pd  Pd22  8  0.24992705  0.25008508  0.74338824  1
  Pd  Pd23  4  0.00008396  0.50000000  0.75657763  1
  Pd  Pd24  4  0.09992153  0.00000000  0.24496780  1
  Pd  Pd25  4  0.10003402  0.00000000  0.75490352  1
  Pd  Pd26  4  0.19995956  0.50000000  0.74513688  1
  Pd  Pd27  4  0.20007717  0.50000000  0.25500051  1
