# generated using pymatgen
data_U(SnOs)6
_symmetry_space_group_name_H-M   Cmcm
_cell_length_a   9.04777490
_cell_length_b   39.75496490
_cell_length_c   5.51128692
_cell_angle_alpha   90.00000000
_cell_angle_beta   90.00000000
_cell_angle_gamma   90.00000000
_symmetry_Int_Tables_number   63
_chemical_formula_structural   U(SnOs)6
_chemical_formula_sum   'U8 Sn48 Os48'
_cell_volume   1982.37669022
_cell_formula_units_Z   8
loop_
 _symmetry_equiv_pos_site_id
 _symmetry_equiv_pos_as_xyz
  1  'x, y, z'
  2  '-x, -y, -z'
  3  '-x, -y, z+1/2'
  4  'x, y, -z+1/2'
  5  'x, -y, -z'
  6  '-x, y, z'
  7  '-x, y, -z+1/2'
  8  'x, -y, z+1/2'
  9  'x+1/2, y+1/2, z'
  10  '-x+1/2, -y+1/2, -z'
  11  '-x+1/2, -y+1/2, z+1/2'
  12  'x+1/2, y+1/2, -z+1/2'
  13  'x+1/2, -y+1/2, -z'
  14  '-x+1/2, y+1/2, z'
  15  '-x+1/2, y+1/2, -z+1/2'
  16  'x+1/2, -y+1/2, z+1/2'
loop_
 _atom_site_type_symbol
 _atom_site_label
 _atom_site_symmetry_multiplicity
 _atom_site_fract_x
 _atom_site_fract_y
 _atom_site_fract_z
 _atom_site_occupancy
  U  U0  4  0.00000000  0.06487440  0.75000000  1
  U  U1  4  0.00000000  0.19223323  0.25000000  1
  Sn  Sn2  8  0.17224004  0.43977936  0.25000000  1
  Sn  Sn3  8  0.17340891  0.31308602  0.75000000  1
  Sn  Sn4  4  0.00000000  0.02125210  0.25000000  1
  Sn  Sn5  4  0.00000000  0.10630716  0.25000000  1
  Sn  Sn6  4  0.00000000  0.14807225  0.75000000  1
  Sn  Sn7  4  0.00000000  0.23172237  0.75000000  1
  Sn  Sn8  4  0.00000000  0.27372166  0.25000000  1
  Sn  Sn9  4  0.00000000  0.35430908  0.25000000  1
  Sn  Sn10  4  0.00000000  0.39675119  0.75000000  1
  Sn  Sn11  4  0.00000000  0.47813141  0.75000000  1
  Os  Os12  16  0.24875256  0.12298190  0.51826858  1
  Os  Os13  8  0.24226845  0.18781825  0.75000000  1
  Os  Os14  8  0.24386900  0.06264350  0.25000000  1
  Os  Os15  8  0.24728114  0.00000000  0.00000000  1
  Os  Os16  8  0.25000000  0.25000000  0.00000000  1
