# generated using pymatgen
data_U(SiRu)6
_symmetry_space_group_name_H-M   C2/m
_cell_length_a   9.30521516
_cell_length_b   27.89181384
_cell_length_c   5.36613510
_cell_angle_alpha   90.00000000
_cell_angle_beta   123.94324371
_cell_angle_gamma   90.00000000
_symmetry_Int_Tables_number   12
_chemical_formula_structural   U(SiRu)6
_chemical_formula_sum   'U6 Si36 Ru36'
_cell_volume   1155.39068065
_cell_formula_units_Z   6
loop_
 _symmetry_equiv_pos_site_id
 _symmetry_equiv_pos_as_xyz
  1  'x, y, z'
  2  '-x, -y, -z'
  3  '-x, y, -z'
  4  'x, -y, z'
  5  'x+1/2, y+1/2, z'
  6  '-x+1/2, -y+1/2, -z'
  7  '-x+1/2, y+1/2, -z'
  8  'x+1/2, -y+1/2, z'
loop_
 _atom_site_type_symbol
 _atom_site_label
 _atom_site_symmetry_multiplicity
 _atom_site_fract_x
 _atom_site_fract_y
 _atom_site_fract_z
 _atom_site_occupancy
  U  U0  4  0.00000000  0.16684085  0.50000000  1
  U  U1  2  0.00000000  0.00000000  0.00000000  1
  Si  Si2  8  0.15254953  0.33337903  0.15248307  1
  Si  Si3  4  0.00000000  0.05577786  0.50000000  1
  Si  Si4  4  0.00000000  0.11165415  0.00000000  1
  Si  Si5  4  0.00000000  0.22166005  0.00000000  1
  Si  Si6  4  0.00000000  0.27765087  0.50000000  1
  Si  Si7  4  0.00000000  0.38918732  0.50000000  1
  Si  Si8  4  0.00000000  0.44406965  0.00000000  1
  Si  Si9  4  0.15224308  0.50000000  0.65219648  1
  Ru  Ru10  8  0.24262949  0.33346660  0.74269048  1
  Ru  Ru11  8  0.24658198  0.41673258  0.49656327  1
  Ru  Ru12  8  0.24661804  0.41669090  0.99664597  1
  Ru  Ru13  4  0.24507911  0.50000000  0.24496719  1
  Ru  Ru14  4  0.25000000  0.25000000  0.00000000  1
  Ru  Ru15  4  0.25000000  0.25000000  0.50000000  1
