# generated using pymatgen
data_U(RePb)6
_symmetry_space_group_name_H-M   C2/m
_cell_length_a   11.42072111
_cell_length_b   9.67316565
_cell_length_c   5.27721926
_cell_angle_alpha   90.00000000
_cell_angle_beta   99.05054067
_cell_angle_gamma   90.00000000
_symmetry_Int_Tables_number   12
_chemical_formula_structural   U(RePb)6
_chemical_formula_sum   'U2 Re12 Pb12'
_cell_volume   575.73995362
_cell_formula_units_Z   2
loop_
 _symmetry_equiv_pos_site_id
 _symmetry_equiv_pos_as_xyz
  1  'x, y, z'
  2  '-x, -y, -z'
  3  '-x, y, -z'
  4  'x, -y, z'
  5  'x+1/2, y+1/2, z'
  6  '-x+1/2, -y+1/2, -z'
  7  '-x+1/2, y+1/2, -z'
  8  'x+1/2, -y+1/2, z'
loop_
 _atom_site_type_symbol
 _atom_site_label
 _atom_site_symmetry_multiplicity
 _atom_site_fract_x
 _atom_site_fract_y
 _atom_site_fract_z
 _atom_site_occupancy
  U  U0  2  0.00000000  0.00000000  0.50000000  1
  Re  Re1  4  0.20704615  0.00000000  0.28779317  1
  Re  Re2  4  0.25000000  0.25000000  0.00000000  1
  Re  Re3  4  0.25000000  0.25000000  0.50000000  1
  Pb  Pb4  4  0.00000000  0.17447433  0.00000000  1
  Pb  Pb5  4  0.00000000  0.33889196  0.50000000  1
  Pb  Pb6  4  0.17413061  0.50000000  0.16170484  1
