# generated using pymatgen
data_U(AgSn)6
_symmetry_space_group_name_H-M   Cmcm
_cell_length_a   9.97878921
_cell_length_b   81.41706784
_cell_length_c   5.86733786
_cell_angle_alpha   90.00000000
_cell_angle_beta   90.00000000
_cell_angle_gamma   90.00000000
_symmetry_Int_Tables_number   63
_chemical_formula_structural   U(AgSn)6
_chemical_formula_sum   'U16 Ag96 Sn96'
_cell_volume   4766.88202073
_cell_formula_units_Z   16
loop_
 _symmetry_equiv_pos_site_id
 _symmetry_equiv_pos_as_xyz
  1  'x, y, z'
  2  '-x, -y, -z'
  3  '-x, -y, z+1/2'
  4  'x, y, -z+1/2'
  5  'x, -y, -z'
  6  '-x, y, z'
  7  '-x, y, -z+1/2'
  8  'x, -y, z+1/2'
  9  'x+1/2, y+1/2, z'
  10  '-x+1/2, -y+1/2, -z'
  11  '-x+1/2, -y+1/2, z+1/2'
  12  'x+1/2, y+1/2, -z+1/2'
  13  'x+1/2, -y+1/2, -z'
  14  '-x+1/2, y+1/2, z'
  15  '-x+1/2, y+1/2, -z+1/2'
  16  'x+1/2, -y+1/2, z+1/2'
loop_
 _atom_site_type_symbol
 _atom_site_label
 _atom_site_symmetry_multiplicity
 _atom_site_fract_x
 _atom_site_fract_y
 _atom_site_fract_z
 _atom_site_occupancy
  U  U0  4  0.00000000  0.03099513  0.75000000  1
  U  U1  4  0.00000000  0.28174150  0.75000000  1
  U  U2  4  0.00000000  0.34378328  0.25000000  1
  U  U3  4  0.00000000  0.40593604  0.75000000  1
  Ag  Ag4  16  0.24493104  0.18750120  0.50009520  1
  Ag  Ag5  16  0.24523295  0.12500481  0.50006257  1
  Ag  Ag6  16  0.24645248  0.06245029  0.50035603  1
  Ag  Ag7  8  0.24306397  0.21879137  0.75000000  1
  Ag  Ag8  8  0.24490311  0.09373478  0.75000000  1
  Ag  Ag9  8  0.24520513  0.15625066  0.25000000  1
  Ag  Ag10  8  0.24719582  0.00000000  0.00000000  1
  Ag  Ag11  8  0.24760411  0.03126423  0.25000000  1
  Ag  Ag12  8  0.25000000  0.25000000  0.00000000  1
  Sn  Sn13  8  0.16420466  0.46885782  0.25000000  1
  Sn  Sn14  8  0.16482183  0.21889071  0.25000000  1
  Sn  Sn15  8  0.16545698  0.15624142  0.75000000  1
  Sn  Sn16  8  0.16548907  0.09364711  0.25000000  1
  Sn  Sn17  4  0.00000000  0.01047102  0.25000000  1
  Sn  Sn18  4  0.00000000  0.05141574  0.25000000  1
  Sn  Sn19  4  0.00000000  0.07224088  0.75000000  1
  Sn  Sn20  4  0.00000000  0.11459950  0.75000000  1
  Sn  Sn21  4  0.00000000  0.13538041  0.25000000  1
  Sn  Sn22  4  0.00000000  0.17714832  0.25000000  1
  Sn  Sn23  4  0.00000000  0.19798834  0.75000000  1
  Sn  Sn24  4  0.00000000  0.24079688  0.75000000  1
  Sn  Sn25  4  0.00000000  0.26168954  0.25000000  1
  Sn  Sn26  4  0.00000000  0.30217916  0.25000000  1
  Sn  Sn27  4  0.00000000  0.32304253  0.75000000  1
  Sn  Sn28  4  0.00000000  0.36452381  0.75000000  1
  Sn  Sn29  4  0.00000000  0.38542205  0.25000000  1
  Sn  Sn30  4  0.00000000  0.42627027  0.25000000  1
  Sn  Sn31  4  0.00000000  0.44719810  0.75000000  1
  Sn  Sn32  4  0.00000000  0.48965706  0.75000000  1
