# generated using pymatgen
data_U(CrSi)6
_symmetry_space_group_name_H-M   Cmcm
_cell_length_a   8.22890887
_cell_length_b   69.51916236
_cell_length_c   4.88608807
_cell_angle_alpha   90.00000000
_cell_angle_beta   90.00000000
_cell_angle_gamma   90.00000000
_symmetry_Int_Tables_number   63
_chemical_formula_structural   U(CrSi)6
_chemical_formula_sum   'U16 Cr96 Si96'
_cell_volume   2795.16902357
_cell_formula_units_Z   16
loop_
 _symmetry_equiv_pos_site_id
 _symmetry_equiv_pos_as_xyz
  1  'x, y, z'
  2  '-x, -y, -z'
  3  '-x, -y, z+1/2'
  4  'x, y, -z+1/2'
  5  'x, -y, -z'
  6  '-x, y, z'
  7  '-x, y, -z+1/2'
  8  'x, -y, z+1/2'
  9  'x+1/2, y+1/2, z'
  10  '-x+1/2, -y+1/2, -z'
  11  '-x+1/2, -y+1/2, z+1/2'
  12  'x+1/2, y+1/2, -z+1/2'
  13  'x+1/2, -y+1/2, -z'
  14  '-x+1/2, y+1/2, z'
  15  '-x+1/2, y+1/2, -z+1/2'
  16  'x+1/2, -y+1/2, z+1/2'
loop_
 _atom_site_type_symbol
 _atom_site_label
 _atom_site_symmetry_multiplicity
 _atom_site_fract_x
 _atom_site_fract_y
 _atom_site_fract_z
 _atom_site_occupancy
  U  U0  4  0.00000000  0.09270592  0.75000000  1
  U  U1  4  0.00000000  0.15626095  0.25000000  1
  U  U2  4  0.00000000  0.21956191  0.75000000  1
  U  U3  4  0.00000000  0.46757039  0.75000000  1
  Cr  Cr4  16  0.24952414  0.43751580  0.50095655  1
  Cr  Cr5  16  0.24960112  0.12514371  0.00174917  1
  Cr  Cr6  16  0.24964756  0.18740095  0.00152416  1
  Cr  Cr7  8  0.24180749  0.53146935  0.75000000  1
  Cr  Cr8  8  0.24256320  0.09348730  0.25000000  1
  Cr  Cr9  8  0.24406294  0.21893547  0.25000000  1
  Cr  Cr10  8  0.24742267  0.15622811  0.75000000  1
  Cr  Cr11  8  0.24891853  0.50000000  0.00000000  1
  Cr  Cr12  8  0.25000000  0.25000000  0.00000000  1
  Si  Si13  8  0.14739444  0.03089669  0.25000000  1
  Si  Si14  8  0.14739519  0.59407521  0.75000000  1
  Si  Si15  8  0.14768413  0.34375776  0.75000000  1
  Si  Si16  8  0.14784554  0.71847565  0.75000000  1
  Si  Si17  4  0.00000000  0.01057717  0.75000000  1
  Si  Si18  4  0.00000000  0.05035322  0.75000000  1
  Si  Si19  4  0.00000000  0.07061155  0.25000000  1
  Si  Si20  4  0.00000000  0.11491704  0.25000000  1
  Si  Si21  4  0.00000000  0.13487829  0.75000000  1
  Si  Si22  4  0.00000000  0.17755364  0.75000000  1
  Si  Si23  4  0.00000000  0.19760773  0.25000000  1
  Si  Si24  4  0.00000000  0.24133352  0.25000000  1
  Si  Si25  4  0.00000000  0.26174405  0.75000000  1
  Si  Si26  4  0.00000000  0.30179381  0.75000000  1
  Si  Si27  4  0.00000000  0.32290824  0.25000000  1
  Si  Si28  4  0.00000000  0.36464589  0.25000000  1
  Si  Si29  4  0.00000000  0.38578141  0.75000000  1
  Si  Si30  4  0.00000000  0.42538970  0.75000000  1
  Si  Si31  4  0.00000000  0.44564612  0.25000000  1
  Si  Si32  4  0.00000000  0.49016134  0.25000000  1
