# generated using pymatgen
data_U(CoSi)6
_symmetry_space_group_name_H-M   Immm
_cell_length_a   4.92526789
_cell_length_b   7.52181896
_cell_length_c   25.59000898
_cell_angle_alpha   90.00000000
_cell_angle_beta   90.00000000
_cell_angle_gamma   90.00000000
_symmetry_Int_Tables_number   71
_chemical_formula_structural   U(CoSi)6
_chemical_formula_sum   'U6 Co36 Si36'
_cell_volume   948.03238107
_cell_formula_units_Z   6
loop_
 _symmetry_equiv_pos_site_id
 _symmetry_equiv_pos_as_xyz
  1  'x, y, z'
  2  '-x, -y, -z'
  3  '-x, -y, z'
  4  'x, y, -z'
  5  'x, -y, -z'
  6  '-x, y, z'
  7  '-x, y, -z'
  8  'x, -y, z'
  9  'x+1/2, y+1/2, z+1/2'
  10  '-x+1/2, -y+1/2, -z+1/2'
  11  '-x+1/2, -y+1/2, z+1/2'
  12  'x+1/2, y+1/2, -z+1/2'
  13  'x+1/2, -y+1/2, -z+1/2'
  14  '-x+1/2, y+1/2, z+1/2'
  15  '-x+1/2, y+1/2, -z+1/2'
  16  'x+1/2, -y+1/2, z+1/2'
loop_
 _atom_site_type_symbol
 _atom_site_label
 _atom_site_symmetry_multiplicity
 _atom_site_fract_x
 _atom_site_fract_y
 _atom_site_fract_z
 _atom_site_occupancy
  U  U0  4  0.00000000  0.50000000  0.16867440  1
  U  U1  2  0.00000000  0.00000000  0.50000000  1
  Co  Co2  16  0.24996638  0.25309328  0.58332948  1
  Co  Co3  8  0.00000000  0.24930859  0.33340060  1
  Co  Co4  8  0.25000000  0.25000000  0.25000000  1
  Co  Co5  4  0.00000000  0.24722419  0.00000000  1
  Si  Si6  8  0.00000000  0.15093200  0.16625050  1
  Si  Si7  4  0.00000000  0.00000000  0.05541811  1
  Si  Si8  4  0.00000000  0.00000000  0.27319998  1
  Si  Si9  4  0.00000000  0.00000000  0.38844886  1
  Si  Si10  4  0.00000000  0.34989051  0.50000000  1
  Si  Si11  4  0.00000000  0.50000000  0.05629497  1
  Si  Si12  4  0.00000000  0.50000000  0.28192240  1
  Si  Si13  4  0.00000000  0.50000000  0.38962533  1
