# generated using pymatgen
data_U(ReSi)6
_symmetry_space_group_name_H-M   Cmcm
_cell_length_a   8.17209688
_cell_length_b   73.75400258
_cell_length_c   5.32689880
_cell_angle_alpha   90.00000000
_cell_angle_beta   90.00000000
_cell_angle_gamma   90.00000000
_symmetry_Int_Tables_number   63
_chemical_formula_structural   U(ReSi)6
_chemical_formula_sum   'U16 Re96 Si96'
_cell_volume   3210.65430272
_cell_formula_units_Z   16
loop_
 _symmetry_equiv_pos_site_id
 _symmetry_equiv_pos_as_xyz
  1  'x, y, z'
  2  '-x, -y, -z'
  3  '-x, -y, z+1/2'
  4  'x, y, -z+1/2'
  5  'x, -y, -z'
  6  '-x, y, z'
  7  '-x, y, -z+1/2'
  8  'x, -y, z+1/2'
  9  'x+1/2, y+1/2, z'
  10  '-x+1/2, -y+1/2, -z'
  11  '-x+1/2, -y+1/2, z+1/2'
  12  'x+1/2, y+1/2, -z+1/2'
  13  'x+1/2, -y+1/2, -z'
  14  '-x+1/2, y+1/2, z'
  15  '-x+1/2, y+1/2, -z+1/2'
  16  'x+1/2, -y+1/2, z+1/2'
loop_
 _atom_site_type_symbol
 _atom_site_label
 _atom_site_symmetry_multiplicity
 _atom_site_fract_x
 _atom_site_fract_y
 _atom_site_fract_z
 _atom_site_occupancy
  U  U0  4  0.00000000  0.09369235  0.25000000  1
  U  U1  4  0.00000000  0.15625178  0.75000000  1
  U  U2  4  0.00000000  0.21861957  0.25000000  1
  U  U3  4  0.00000000  0.46859014  0.25000000  1
  Re  Re4  16  0.24698684  0.37498908  0.50006412  1
  Re  Re5  16  0.24718463  0.31247523  0.00005280  1
  Re  Re6  16  0.24875562  0.43750648  0.00044533  1
  Si  Si7  8  0.16114162  0.40613041  0.75000000  1
  Si  Si8  8  0.16132517  0.28124760  0.75000000  1
  Si  Si9  8  0.16142699  0.34377650  0.25000000  1
  Si  Si10  8  0.16237578  0.03122332  0.75000000  1
  Re  Re11  8  0.24392690  0.28122344  0.25000000  1
  Re  Re12  8  0.24661995  0.40622116  0.25000000  1
  Re  Re13  8  0.24692357  0.34373981  0.75000000  1
  Re  Re14  8  0.24925033  0.03128594  0.25000000  1
  Re  Re15  8  0.24966319  0.00000000  0.00000000  1
  Re  Re16  8  0.25000000  0.25000000  0.00000000  1
  Si  Si17  4  0.00000000  0.01030768  0.25000000  1
  Si  Si18  4  0.00000000  0.05265768  0.25000000  1
  Si  Si19  4  0.00000000  0.07344016  0.75000000  1
  Si  Si20  4  0.00000000  0.11458821  0.75000000  1
  Si  Si21  4  0.00000000  0.13543722  0.25000000  1
  Si  Si22  4  0.00000000  0.17703436  0.25000000  1
  Si  Si23  4  0.00000000  0.19793778  0.75000000  1
  Si  Si24  4  0.00000000  0.23871223  0.75000000  1
  Si  Si25  4  0.00000000  0.25938596  0.25000000  1
  Si  Si26  4  0.00000000  0.30226852  0.25000000  1
  Si  Si27  4  0.00000000  0.32289739  0.75000000  1
  Si  Si28  4  0.00000000  0.36459964  0.75000000  1
  Si  Si29  4  0.00000000  0.38534221  0.25000000  1
  Si  Si30  4  0.00000000  0.42754214  0.25000000  1
  Si  Si31  4  0.00000000  0.44830599  0.75000000  1
  Si  Si32  4  0.00000000  0.48958546  0.75000000  1
