# generated using pymatgen
data_U(ReSn)6
_symmetry_space_group_name_H-M   C2/m
_cell_length_a   29.59485369
_cell_length_b   5.38407237
_cell_length_c   9.86200272
_cell_angle_alpha   90.00000000
_cell_angle_beta   107.57579445
_cell_angle_gamma   90.00000000
_symmetry_Int_Tables_number   12
_chemical_formula_structural   U(ReSn)6
_chemical_formula_sum   'U6 Re36 Sn36'
_cell_volume   1498.06323072
_cell_formula_units_Z   6
loop_
 _symmetry_equiv_pos_site_id
 _symmetry_equiv_pos_as_xyz
  1  'x, y, z'
  2  '-x, -y, -z'
  3  '-x, y, -z'
  4  'x, -y, z'
  5  'x+1/2, y+1/2, z'
  6  '-x+1/2, -y+1/2, -z'
  7  '-x+1/2, y+1/2, -z'
  8  'x+1/2, -y+1/2, z'
loop_
 _atom_site_type_symbol
 _atom_site_label
 _atom_site_symmetry_multiplicity
 _atom_site_fract_x
 _atom_site_fract_y
 _atom_site_fract_z
 _atom_site_occupancy
  U  U0  4  0.16982366  0.50000000  0.67015482  1
  U  U1  2  0.00000000  0.00000000  0.50000000  1
  Re  Re2  8  0.08216269  0.24315270  0.34699325  1
  Re  Re3  8  0.08289353  0.24652714  0.81790654  1
  Re  Re4  4  0.00048806  0.50000000  0.26609057  1
  Re  Re5  4  0.16919009  0.00000000  0.89900249  1
  Re  Re6  4  0.17017717  0.00000000  0.44036860  1
  Re  Re7  4  0.25000000  0.25000000  0.00000000  1
  Re  Re8  4  0.25000000  0.25000000  0.50000000  1
  Sn  Sn9  4  0.00009005  0.00000000  0.83022616  1
  Sn  Sn10  4  0.05525180  0.50000000  0.05508259  1
  Sn  Sn11  4  0.05657067  0.50000000  0.55669906  1
  Sn  Sn12  4  0.10886733  0.00000000  0.10825424  1
  Sn  Sn13  4  0.11332143  0.00000000  0.61350909  1
  Sn  Sn14  4  0.16402272  0.50000000  0.33501058  1
  Sn  Sn15  4  0.16423514  0.50000000  0.99344585  1
  Sn  Sn16  4  0.21637509  0.00000000  0.21566911  1
  Sn  Sn17  4  0.22907284  0.00000000  0.72940884  1
