# generated using pymatgen
data_U(AgSn)6
_symmetry_space_group_name_H-M   Cmcm
_cell_length_a   10.01118050
_cell_length_b   40.66140082
_cell_length_c   5.84917776
_cell_angle_alpha   90.00000000
_cell_angle_beta   90.00000000
_cell_angle_gamma   90.00000000
_symmetry_Int_Tables_number   63
_chemical_formula_structural   U(AgSn)6
_chemical_formula_sum   'U8 Ag48 Sn48'
_cell_volume   2381.01673447
_cell_formula_units_Z   8
loop_
 _symmetry_equiv_pos_site_id
 _symmetry_equiv_pos_as_xyz
  1  'x, y, z'
  2  '-x, -y, -z'
  3  '-x, -y, z+1/2'
  4  'x, y, -z+1/2'
  5  'x, -y, -z'
  6  '-x, y, z'
  7  '-x, y, -z+1/2'
  8  'x, -y, z+1/2'
  9  'x+1/2, y+1/2, z'
  10  '-x+1/2, -y+1/2, -z'
  11  '-x+1/2, -y+1/2, z+1/2'
  12  'x+1/2, y+1/2, -z+1/2'
  13  'x+1/2, -y+1/2, -z'
  14  '-x+1/2, y+1/2, z'
  15  '-x+1/2, y+1/2, -z+1/2'
  16  'x+1/2, -y+1/2, z+1/2'
loop_
 _atom_site_type_symbol
 _atom_site_label
 _atom_site_symmetry_multiplicity
 _atom_site_fract_x
 _atom_site_fract_y
 _atom_site_fract_z
 _atom_site_occupancy
  U  U0  4  0.00000000  0.06306622  0.25000000  1
  U  U1  4  0.00000000  0.18793458  0.75000000  1
  Ag  Ag2  16  0.24758333  0.37515249  0.50084473  1
  Ag  Ag3  8  0.24774849  0.00000000  0.00000000  1
  Ag  Ag4  8  0.24863627  0.06268499  0.75000000  1
  Ag  Ag5  8  0.24942210  0.18752515  0.25000000  1
  Ag  Ag6  8  0.25000000  0.25000000  0.00000000  1
  Sn  Sn7  8  0.16528642  0.31252165  0.25000000  1
  Sn  Sn8  8  0.16674656  0.43858333  0.75000000  1
  Sn  Sn9  4  0.00000000  0.02119574  0.75000000  1
  Sn  Sn10  4  0.00000000  0.10522763  0.75000000  1
  Sn  Sn11  4  0.00000000  0.14631008  0.25000000  1
  Sn  Sn12  4  0.00000000  0.22792270  0.25000000  1
  Sn  Sn13  4  0.00000000  0.27095058  0.75000000  1
  Sn  Sn14  4  0.00000000  0.35367424  0.75000000  1
  Sn  Sn15  4  0.00000000  0.39709200  0.25000000  1
  Sn  Sn16  4  0.00000000  0.47839233  0.25000000  1
