# generated using pymatgen
data_U(MnPb)6
_symmetry_space_group_name_H-M   Cmcm
_cell_length_a   9.95023229
_cell_length_b   39.64442522
_cell_length_c   5.72106496
_cell_angle_alpha   90.00000000
_cell_angle_beta   90.00000000
_cell_angle_gamma   90.00000000
_symmetry_Int_Tables_number   63
_chemical_formula_structural   U(MnPb)6
_chemical_formula_sum   'U8 Mn48 Pb48'
_cell_volume   2256.79559066
_cell_formula_units_Z   8
loop_
 _symmetry_equiv_pos_site_id
 _symmetry_equiv_pos_as_xyz
  1  'x, y, z'
  2  '-x, -y, -z'
  3  '-x, -y, z+1/2'
  4  'x, y, -z+1/2'
  5  'x, -y, -z'
  6  '-x, y, z'
  7  '-x, y, -z+1/2'
  8  'x, -y, z+1/2'
  9  'x+1/2, y+1/2, z'
  10  '-x+1/2, -y+1/2, -z'
  11  '-x+1/2, -y+1/2, z+1/2'
  12  'x+1/2, y+1/2, -z+1/2'
  13  'x+1/2, -y+1/2, -z'
  14  '-x+1/2, y+1/2, z'
  15  '-x+1/2, y+1/2, -z+1/2'
  16  'x+1/2, -y+1/2, z+1/2'
loop_
 _atom_site_type_symbol
 _atom_site_label
 _atom_site_symmetry_multiplicity
 _atom_site_fract_x
 _atom_site_fract_y
 _atom_site_fract_z
 _atom_site_occupancy
  U  U0  4  0.00000000  0.30976984  0.75000000  1
  U  U1  4  0.00000000  0.43567774  0.25000000  1
  Mn  Mn2  16  0.24625385  0.37561945  0.00547970  1
  Mn  Mn3  8  0.24455667  0.31164828  0.25000000  1
  Mn  Mn4  8  0.24461266  0.50000000  0.00000000  1
  Mn  Mn5  8  0.24505117  0.43779362  0.75000000  1
  Mn  Mn6  8  0.25000000  0.25000000  0.00000000  1
  Pb  Pb7  8  0.17779701  0.18671660  0.25000000  1
  Pb  Pb8  8  0.17841820  0.06146422  0.75000000  1
  Pb  Pb9  4  0.00000000  0.02098606  0.25000000  1
  Pb  Pb10  4  0.00000000  0.10329935  0.25000000  1
  Pb  Pb11  4  0.00000000  0.14482678  0.75000000  1
  Pb  Pb12  4  0.00000000  0.22719733  0.75000000  1
  Pb  Pb13  4  0.00000000  0.26916014  0.25000000  1
  Pb  Pb14  4  0.00000000  0.35264806  0.25000000  1
  Pb  Pb15  4  0.00000000  0.39454858  0.75000000  1
  Pb  Pb16  4  0.00000000  0.47906019  0.75000000  1
