# generated using pymatgen
data_U(ZnSi)6
_symmetry_space_group_name_H-M   Cmcm
_cell_length_a   8.30101741
_cell_length_b   74.36411716
_cell_length_c   5.48260384
_cell_angle_alpha   90.00000000
_cell_angle_beta   90.00000000
_cell_angle_gamma   90.00000000
_symmetry_Int_Tables_number   63
_chemical_formula_structural   U(ZnSi)6
_chemical_formula_sum   'U16 Zn96 Si96'
_cell_volume   3384.39945918
_cell_formula_units_Z   16
loop_
 _symmetry_equiv_pos_site_id
 _symmetry_equiv_pos_as_xyz
  1  'x, y, z'
  2  '-x, -y, -z'
  3  '-x, -y, z+1/2'
  4  'x, y, -z+1/2'
  5  'x, -y, -z'
  6  '-x, y, z'
  7  '-x, y, -z+1/2'
  8  'x, -y, z+1/2'
  9  'x+1/2, y+1/2, z'
  10  '-x+1/2, -y+1/2, -z'
  11  '-x+1/2, -y+1/2, z+1/2'
  12  'x+1/2, y+1/2, -z+1/2'
  13  'x+1/2, -y+1/2, -z'
  14  '-x+1/2, y+1/2, z'
  15  '-x+1/2, y+1/2, -z+1/2'
  16  'x+1/2, -y+1/2, z+1/2'
loop_
 _atom_site_type_symbol
 _atom_site_label
 _atom_site_symmetry_multiplicity
 _atom_site_fract_x
 _atom_site_fract_y
 _atom_site_fract_z
 _atom_site_occupancy
  U  U0  4  0.00000000  0.03108029  0.25000000  1
  U  U1  4  0.00000000  0.28167936  0.25000000  1
  U  U2  4  0.00000000  0.34375622  0.75000000  1
  U  U3  4  0.00000000  0.40591810  0.25000000  1
  Zn  Zn4  16  0.24833795  0.12502310  0.50080911  1
  Zn  Zn5  16  0.24835629  0.18749419  0.50079148  1
  Zn  Zn6  16  0.24903677  0.06245121  0.50087095  1
  Zn  Zn7  8  0.23597501  0.21883534  0.25000000  1
  Zn  Zn8  8  0.23703874  0.09369327  0.25000000  1
  Zn  Zn9  8  0.24051836  0.46874060  0.25000000  1
  Zn  Zn10  8  0.24725025  0.15623779  0.75000000  1
  Zn  Zn11  8  0.24753909  0.00000000  0.00000000  1
  Zn  Zn12  8  0.25000000  0.25000000  0.00000000  1
  Si  Si13  8  0.14711389  0.21926184  0.75000000  1
  Si  Si14  8  0.14738493  0.46844658  0.75000000  1
  Si  Si15  8  0.14764908  0.09339222  0.75000000  1
  Si  Si16  8  0.15134046  0.15623791  0.25000000  1
  Si  Si17  4  0.00000000  0.01170608  0.75000000  1
  Si  Si18  4  0.00000000  0.04860208  0.75000000  1
  Si  Si19  4  0.00000000  0.06959485  0.25000000  1
  Si  Si20  4  0.00000000  0.11516563  0.25000000  1
  Si  Si21  4  0.00000000  0.13482431  0.75000000  1
  Si  Si22  4  0.00000000  0.17771919  0.75000000  1
  Si  Si23  4  0.00000000  0.19727512  0.25000000  1
  Si  Si24  4  0.00000000  0.24307994  0.25000000  1
  Si  Si25  4  0.00000000  0.26481417  0.75000000  1
  Si  Si26  4  0.00000000  0.30063858  0.75000000  1
  Si  Si27  4  0.00000000  0.32339273  0.25000000  1
  Si  Si28  4  0.00000000  0.36416796  0.25000000  1
  Si  Si29  4  0.00000000  0.38692839  0.75000000  1
  Si  Si30  4  0.00000000  0.42284014  0.75000000  1
  Si  Si31  4  0.00000000  0.44470980  0.25000000  1
  Si  Si32  4  0.00000000  0.49066834  0.25000000  1
