# generated using pymatgen
data_U(VPb)6
_symmetry_space_group_name_H-M   Cmcm
_cell_length_a   9.70428368
_cell_length_b   77.94308524
_cell_length_c   5.61730569
_cell_angle_alpha   90.00000000
_cell_angle_beta   90.00000000
_cell_angle_gamma   90.00000000
_symmetry_Int_Tables_number   63
_chemical_formula_structural   U(VPb)6
_chemical_formula_sum   'U16 V96 Pb96'
_cell_volume   4248.82784790
_cell_formula_units_Z   16
loop_
 _symmetry_equiv_pos_site_id
 _symmetry_equiv_pos_as_xyz
  1  'x, y, z'
  2  '-x, -y, -z'
  3  '-x, -y, z+1/2'
  4  'x, y, -z+1/2'
  5  'x, -y, -z'
  6  '-x, y, z'
  7  '-x, y, -z+1/2'
  8  'x, -y, z+1/2'
  9  'x+1/2, y+1/2, z'
  10  '-x+1/2, -y+1/2, -z'
  11  '-x+1/2, -y+1/2, z+1/2'
  12  'x+1/2, y+1/2, -z+1/2'
  13  'x+1/2, -y+1/2, -z'
  14  '-x+1/2, y+1/2, z'
  15  '-x+1/2, y+1/2, -z+1/2'
  16  'x+1/2, -y+1/2, z+1/2'
loop_
 _atom_site_type_symbol
 _atom_site_label
 _atom_site_symmetry_multiplicity
 _atom_site_fract_x
 _atom_site_fract_y
 _atom_site_fract_z
 _atom_site_occupancy
  U  U0  4  0.00000000  0.09379244  0.75000000  1
  U  U1  4  0.00000000  0.15619303  0.25000000  1
  U  U2  4  0.00000000  0.21865863  0.75000000  1
  U  U3  4  0.00000000  0.46867413  0.75000000  1
  V  V4  16  0.24596815  0.12499101  0.00002546  1
  V  V5  16  0.24619941  0.18752607  0.50007174  1
  V  V6  16  0.24850760  0.43771008  0.50149265  1
  V  V7  8  0.24330200  0.46872675  0.25000000  1
  V  V8  8  0.24395086  0.50000000  0.00000000  1
  V  V9  8  0.24519643  0.09369131  0.25000000  1
  V  V10  8  0.24587707  0.21878655  0.25000000  1
  V  V11  8  0.24613015  0.15624604  0.75000000  1
  V  V12  8  0.25000000  0.25000000  0.00000000  1
  Pb  Pb13  8  0.18110897  0.34374094  0.75000000  1
  Pb  Pb14  8  0.18120575  0.28124554  0.25000000  1
  Pb  Pb15  8  0.18162368  0.40629237  0.25000000  1
  Pb  Pb16  8  0.18168291  0.03104379  0.25000000  1
  Pb  Pb17  4  0.00000000  0.01033448  0.75000000  1
  Pb  Pb18  4  0.00000000  0.05193881  0.75000000  1
  Pb  Pb19  4  0.00000000  0.07272622  0.25000000  1
  Pb  Pb20  4  0.00000000  0.11453354  0.25000000  1
  Pb  Pb21  4  0.00000000  0.13542714  0.75000000  1
  Pb  Pb22  4  0.00000000  0.17706060  0.75000000  1
  Pb  Pb23  4  0.00000000  0.19786882  0.25000000  1
  Pb  Pb24  4  0.00000000  0.23949891  0.25000000  1
  Pb  Pb25  4  0.00000000  0.26033105  0.75000000  1
  Pb  Pb26  4  0.00000000  0.30207851  0.75000000  1
  Pb  Pb27  4  0.00000000  0.32290610  0.25000000  1
  Pb  Pb28  4  0.00000000  0.36459692  0.25000000  1
  Pb  Pb29  4  0.00000000  0.38532244  0.75000000  1
  Pb  Pb30  4  0.00000000  0.42684768  0.75000000  1
  Pb  Pb31  4  0.00000000  0.44774783  0.25000000  1
  Pb  Pb32  4  0.00000000  0.48958183  0.25000000  1
