# generated using pymatgen
data_U(TiPb)6
_symmetry_space_group_name_H-M   Cmmm
_cell_length_a   5.77333273
_cell_length_b   50.00454807
_cell_length_c   10.02102966
_cell_angle_alpha   90.00000000
_cell_angle_beta   90.00000000
_cell_angle_gamma   90.00000000
_symmetry_Int_Tables_number   65
_chemical_formula_structural   U(TiPb)6
_chemical_formula_sum   'U10 Ti60 Pb60'
_cell_volume   2893.00005408
_cell_formula_units_Z   10
loop_
 _symmetry_equiv_pos_site_id
 _symmetry_equiv_pos_as_xyz
  1  'x, y, z'
  2  '-x, -y, -z'
  3  '-x, -y, z'
  4  'x, y, -z'
  5  'x, -y, -z'
  6  '-x, y, z'
  7  '-x, y, -z'
  8  'x, -y, z'
  9  'x+1/2, y+1/2, z'
  10  '-x+1/2, -y+1/2, -z'
  11  '-x+1/2, -y+1/2, z'
  12  'x+1/2, y+1/2, -z'
  13  'x+1/2, -y+1/2, -z'
  14  '-x+1/2, y+1/2, z'
  15  '-x+1/2, y+1/2, -z'
  16  'x+1/2, -y+1/2, z'
loop_
 _atom_site_type_symbol
 _atom_site_label
 _atom_site_symmetry_multiplicity
 _atom_site_fract_x
 _atom_site_fract_y
 _atom_site_fract_z
 _atom_site_occupancy
  U  U0  4  0.00000000  0.19996908  0.00000000  1
  U  U1  4  0.00000000  0.39997000  0.50000000  1
  U  U2  2  0.00000000  0.00000000  0.50000000  1
  Ti  Ti3  16  0.24999946  0.14999999  0.24999999  1
  Ti  Ti4  16  0.24999989  0.44999999  0.25075820  1
  Ti  Ti5  8  0.00000000  0.10000033  0.25076341  1
  Ti  Ti6  8  0.00000000  0.30000031  0.24923723  1
  Ti  Ti7  8  0.25000000  0.25000000  0.24925653  1
  Ti  Ti8  4  0.00000000  0.50000000  0.25078199  1
  Pb  Pb9  8  0.00000000  0.19999505  0.33257811  1
  Pb  Pb10  8  0.00000000  0.39999456  0.16742098  1
  Pb  Pb11  4  0.00000000  0.00000000  0.16747365  1
  Pb  Pb12  4  0.00000000  0.06696529  0.50000000  1
  Pb  Pb13  4  0.00000000  0.06697087  0.00000000  1
  Pb  Pb14  4  0.00000000  0.13304207  0.50000000  1
  Pb  Pb15  4  0.00000000  0.13305078  0.00000000  1
  Pb  Pb16  4  0.00000000  0.26696335  0.00000000  1
  Pb  Pb17  4  0.00000000  0.26697041  0.50000000  1
  Pb  Pb18  4  0.00000000  0.33304185  0.00000000  1
  Pb  Pb19  4  0.00000000  0.33305068  0.50000000  1
  Pb  Pb20  4  0.00000000  0.46694980  0.50000000  1
  Pb  Pb21  4  0.00000000  0.46697810  0.00000000  1
