# generated using pymatgen
data_U(GeRh)6
_symmetry_space_group_name_H-M   Cmcm
_cell_length_a   8.06487661
_cell_length_b   18.94418811
_cell_length_c   5.46286294
_cell_angle_alpha   90.00000000
_cell_angle_beta   90.00000000
_cell_angle_gamma   90.00000000
_symmetry_Int_Tables_number   63
_chemical_formula_structural   U(GeRh)6
_chemical_formula_sum   'U4 Ge24 Rh24'
_cell_volume   834.63007371
_cell_formula_units_Z   4
loop_
 _symmetry_equiv_pos_site_id
 _symmetry_equiv_pos_as_xyz
  1  'x, y, z'
  2  '-x, -y, -z'
  3  '-x, -y, z+1/2'
  4  'x, y, -z+1/2'
  5  'x, -y, -z'
  6  '-x, y, z'
  7  '-x, y, -z+1/2'
  8  'x, -y, z+1/2'
  9  'x+1/2, y+1/2, z'
  10  '-x+1/2, -y+1/2, -z'
  11  '-x+1/2, -y+1/2, z+1/2'
  12  'x+1/2, y+1/2, -z+1/2'
  13  'x+1/2, -y+1/2, -z'
  14  '-x+1/2, y+1/2, z'
  15  '-x+1/2, y+1/2, -z+1/2'
  16  'x+1/2, -y+1/2, z+1/2'
loop_
 _atom_site_type_symbol
 _atom_site_label
 _atom_site_symmetry_multiplicity
 _atom_site_fract_x
 _atom_site_fract_y
 _atom_site_fract_z
 _atom_site_occupancy
  U  U0  4  0.00000000  0.37385231  0.75000000  1
  Ge  Ge1  8  0.15759362  0.12399161  0.25000000  1
  Ge  Ge2  4  0.00000000  0.04180387  0.75000000  1
  Ge  Ge3  4  0.00000000  0.20906251  0.75000000  1
  Ge  Ge4  4  0.00000000  0.29186185  0.25000000  1
  Ge  Ge5  4  0.00000000  0.45836177  0.25000000  1
  Rh  Rh6  8  0.24460373  0.37496567  0.25000000  1
  Rh  Rh7  8  0.24688170  0.50000000  0.00000000  1
  Rh  Rh8  8  0.25000000  0.25000000  0.00000000  1
