# generated using pymatgen
data_U(CdSn)6
_symmetry_space_group_name_H-M   Cmcm
_cell_length_a   10.11830111
_cell_length_b   82.92589630
_cell_length_c   5.91584550
_cell_angle_alpha   90.00000000
_cell_angle_beta   90.00000000
_cell_angle_gamma   90.00000000
_symmetry_Int_Tables_number   63
_chemical_formula_structural   U(CdSn)6
_chemical_formula_sum   'U16 Cd96 Sn96'
_cell_volume   4963.80368278
_cell_formula_units_Z   16
loop_
 _symmetry_equiv_pos_site_id
 _symmetry_equiv_pos_as_xyz
  1  'x, y, z'
  2  '-x, -y, -z'
  3  '-x, -y, z+1/2'
  4  'x, y, -z+1/2'
  5  'x, -y, -z'
  6  '-x, y, z'
  7  '-x, y, -z+1/2'
  8  'x, -y, z+1/2'
  9  'x+1/2, y+1/2, z'
  10  '-x+1/2, -y+1/2, -z'
  11  '-x+1/2, -y+1/2, z+1/2'
  12  'x+1/2, y+1/2, -z+1/2'
  13  'x+1/2, -y+1/2, -z'
  14  '-x+1/2, y+1/2, z'
  15  '-x+1/2, y+1/2, -z+1/2'
  16  'x+1/2, -y+1/2, z+1/2'
loop_
 _atom_site_type_symbol
 _atom_site_label
 _atom_site_symmetry_multiplicity
 _atom_site_fract_x
 _atom_site_fract_y
 _atom_site_fract_z
 _atom_site_occupancy
  U  U0  4  0.00000000  0.09470449  0.75000000  1
  U  U1  4  0.00000000  0.15620780  0.25000000  1
  U  U2  4  0.00000000  0.21809594  0.75000000  1
  U  U3  4  0.00000000  0.46911965  0.75000000  1
  Cd  Cd4  16  0.24674235  0.43794881  0.50156484  1
  Cd  Cd5  16  0.24714462  0.12493692  0.50031276  1
  Cd  Cd6  16  0.24734171  0.18755453  0.50027946  1
  Cd  Cd7  8  0.24352445  0.50000000  0.00000000  1
  Cd  Cd8  8  0.24390402  0.46892311  0.25000000  1
  Cd  Cd9  8  0.24669852  0.15625544  0.75000000  1
  Cd  Cd10  8  0.24813701  0.09366977  0.25000000  1
  Cd  Cd11  8  0.24919580  0.28122322  0.75000000  1
  Cd  Cd12  8  0.25000000  0.25000000  0.00000000  1
  Sn  Sn13  8  0.18032908  0.03099660  0.25000000  1
  Sn  Sn14  8  0.18188776  0.28124568  0.25000000  1
  Sn  Sn15  8  0.18278385  0.40618273  0.25000000  1
  Sn  Sn16  8  0.18325495  0.34375357  0.75000000  1
  Sn  Sn17  4  0.00000000  0.01008462  0.75000000  1
  Sn  Sn18  4  0.00000000  0.05436423  0.75000000  1
  Sn  Sn19  4  0.00000000  0.07485081  0.25000000  1
  Sn  Sn20  4  0.00000000  0.11474317  0.25000000  1
  Sn  Sn21  4  0.00000000  0.13559505  0.75000000  1
  Sn  Sn22  4  0.00000000  0.17695354  0.75000000  1
  Sn  Sn23  4  0.00000000  0.19767071  0.25000000  1
  Sn  Sn24  4  0.00000000  0.23729394  0.25000000  1
  Sn  Sn25  4  0.00000000  0.25812166  0.75000000  1
  Sn  Sn26  4  0.00000000  0.30228434  0.75000000  1
  Sn  Sn27  4  0.00000000  0.32288660  0.25000000  1
  Sn  Sn28  4  0.00000000  0.36461655  0.25000000  1
  Sn  Sn29  4  0.00000000  0.38523839  0.75000000  1
  Sn  Sn30  4  0.00000000  0.42873604  0.75000000  1
  Sn  Sn31  4  0.00000000  0.44950907  0.25000000  1
  Sn  Sn32  4  0.00000000  0.48961494  0.25000000  1
