# generated using pymatgen
data_U(VSn)6
_symmetry_space_group_name_H-M   Cmcm
_cell_length_a   9.42078740
_cell_length_b   75.29016311
_cell_length_c   5.43144509
_cell_angle_alpha   90.00000000
_cell_angle_beta   90.00000000
_cell_angle_gamma   90.00000000
_symmetry_Int_Tables_number   63
_chemical_formula_structural   U(VSn)6
_chemical_formula_sum   'U16 V96 Sn96'
_cell_volume   3852.48391960
_cell_formula_units_Z   16
loop_
 _symmetry_equiv_pos_site_id
 _symmetry_equiv_pos_as_xyz
  1  'x, y, z'
  2  '-x, -y, -z'
  3  '-x, -y, z+1/2'
  4  'x, y, -z+1/2'
  5  'x, -y, -z'
  6  '-x, y, z'
  7  '-x, y, -z+1/2'
  8  'x, -y, z+1/2'
  9  'x+1/2, y+1/2, z'
  10  '-x+1/2, -y+1/2, -z'
  11  '-x+1/2, -y+1/2, z+1/2'
  12  'x+1/2, y+1/2, -z+1/2'
  13  'x+1/2, -y+1/2, -z'
  14  '-x+1/2, y+1/2, z'
  15  '-x+1/2, y+1/2, -z+1/2'
  16  'x+1/2, -y+1/2, z+1/2'
loop_
 _atom_site_type_symbol
 _atom_site_label
 _atom_site_symmetry_multiplicity
 _atom_site_fract_x
 _atom_site_fract_y
 _atom_site_fract_z
 _atom_site_occupancy
  U  U0  4  0.00000000  0.03153332  0.25000000  1
  U  U1  4  0.00000000  0.28118911  0.25000000  1
  U  U2  4  0.00000000  0.34378169  0.75000000  1
  U  U3  4  0.00000000  0.40636963  0.25000000  1
  V  V4  16  0.24745419  0.37499529  0.00013207  1
  V  V5  16  0.24763528  0.31250158  0.00022739  1
  V  V6  16  0.24843184  0.06232239  0.00229582  1
  V  V7  8  0.24356626  0.03134206  0.75000000  1
  V  V8  8  0.24534026  0.00000000  0.00000000  1
  V  V9  8  0.24594620  0.40622477  0.75000000  1
  V  V10  8  0.24653838  0.28124671  0.75000000  1
  V  V11  8  0.24756760  0.34375936  0.25000000  1
  V  V12  8  0.25000000  0.25000000  0.00000000  1
  Sn  Sn13  8  0.16475635  0.46893860  0.75000000  1
  Sn  Sn14  8  0.16484454  0.15625240  0.25000000  1
  Sn  Sn15  8  0.16486261  0.21872446  0.75000000  1
  Sn  Sn16  8  0.16548230  0.09379392  0.75000000  1
  Sn  Sn17  4  0.00000000  0.01042406  0.75000000  1
  Sn  Sn18  4  0.00000000  0.05283519  0.75000000  1
  Sn  Sn19  4  0.00000000  0.07373561  0.25000000  1
  Sn  Sn20  4  0.00000000  0.11474706  0.25000000  1
  Sn  Sn21  4  0.00000000  0.13540799  0.75000000  1
  Sn  Sn22  4  0.00000000  0.17710705  0.75000000  1
  Sn  Sn23  4  0.00000000  0.19784327  0.25000000  1
  Sn  Sn24  4  0.00000000  0.23915385  0.25000000  1
  Sn  Sn25  4  0.00000000  0.26005287  0.75000000  1
  Sn  Sn26  4  0.00000000  0.30207201  0.75000000  1
  Sn  Sn27  4  0.00000000  0.32290708  0.25000000  1
  Sn  Sn28  4  0.00000000  0.36461876  0.25000000  1
  Sn  Sn29  4  0.00000000  0.38549622  0.75000000  1
  Sn  Sn30  4  0.00000000  0.42765508  0.75000000  1
  Sn  Sn31  4  0.00000000  0.44848829  0.25000000  1
  Sn  Sn32  4  0.00000000  0.48972425  0.25000000  1
