# generated using pymatgen
data_U(SiPd)6
_symmetry_space_group_name_H-M   Cmcm
_cell_length_a   7.73630144
_cell_length_b   38.75573715
_cell_length_c   5.58372931
_cell_angle_alpha   90.00000000
_cell_angle_beta   90.00000000
_cell_angle_gamma   90.00000000
_symmetry_Int_Tables_number   63
_chemical_formula_structural   U(SiPd)6
_chemical_formula_sum   'U8 Si48 Pd48'
_cell_volume   1674.14758738
_cell_formula_units_Z   8
loop_
 _symmetry_equiv_pos_site_id
 _symmetry_equiv_pos_as_xyz
  1  'x, y, z'
  2  '-x, -y, -z'
  3  '-x, -y, z+1/2'
  4  'x, y, -z+1/2'
  5  'x, -y, -z'
  6  '-x, y, z'
  7  '-x, y, -z+1/2'
  8  'x, -y, z+1/2'
  9  'x+1/2, y+1/2, z'
  10  '-x+1/2, -y+1/2, -z'
  11  '-x+1/2, -y+1/2, z+1/2'
  12  'x+1/2, y+1/2, -z+1/2'
  13  'x+1/2, -y+1/2, -z'
  14  '-x+1/2, y+1/2, z'
  15  '-x+1/2, y+1/2, -z+1/2'
  16  'x+1/2, -y+1/2, z+1/2'
loop_
 _atom_site_type_symbol
 _atom_site_label
 _atom_site_symmetry_multiplicity
 _atom_site_fract_x
 _atom_site_fract_y
 _atom_site_fract_z
 _atom_site_occupancy
  U  U0  4  0.00000000  0.31047689  0.75000000  1
  U  U1  4  0.00000000  0.43423870  0.25000000  1
  Si  Si2  8  0.14549127  0.18627722  0.25000000  1
  Si  Si3  8  0.14624258  0.05591675  0.75000000  1
  Si  Si4  4  0.00000000  0.02288144  0.25000000  1
  Si  Si5  4  0.00000000  0.10417834  0.25000000  1
  Si  Si6  4  0.00000000  0.14465884  0.75000000  1
  Si  Si7  4  0.00000000  0.22945704  0.75000000  1
  Si  Si8  4  0.00000000  0.27284571  0.25000000  1
  Si  Si9  4  0.00000000  0.35353822  0.25000000  1
  Si  Si10  4  0.00000000  0.39468695  0.75000000  1
  Si  Si11  4  0.00000000  0.47750703  0.75000000  1
  Pd  Pd12  16  0.24202136  0.12542961  0.00048278  1
  Pd  Pd13  8  0.24268730  0.06265945  0.25000000  1
  Pd  Pd14  8  0.24695676  0.18771310  0.75000000  1
  Pd  Pd15  8  0.24764778  0.00000000  0.00000000  1
  Pd  Pd16  8  0.25000000  0.25000000  0.00000000  1
