# generated using pymatgen
data_U(CrPb)6
_symmetry_space_group_name_H-M   Cmcm
_cell_length_a   9.76613240
_cell_length_b   79.85032037
_cell_length_c   5.75234689
_cell_angle_alpha   90.00000000
_cell_angle_beta   90.00000000
_cell_angle_gamma   90.00000000
_symmetry_Int_Tables_number   63
_chemical_formula_structural   U(CrPb)6
_chemical_formula_sum   'U16 Cr96 Pb96'
_cell_volume   4485.84577491
_cell_formula_units_Z   16
loop_
 _symmetry_equiv_pos_site_id
 _symmetry_equiv_pos_as_xyz
  1  'x, y, z'
  2  '-x, -y, -z'
  3  '-x, -y, z+1/2'
  4  'x, y, -z+1/2'
  5  'x, -y, -z'
  6  '-x, y, z'
  7  '-x, y, -z+1/2'
  8  'x, -y, z+1/2'
  9  'x+1/2, y+1/2, z'
  10  '-x+1/2, -y+1/2, -z'
  11  '-x+1/2, -y+1/2, z+1/2'
  12  'x+1/2, y+1/2, -z+1/2'
  13  'x+1/2, -y+1/2, -z'
  14  '-x+1/2, y+1/2, z'
  15  '-x+1/2, y+1/2, -z+1/2'
  16  'x+1/2, -y+1/2, z+1/2'
loop_
 _atom_site_type_symbol
 _atom_site_label
 _atom_site_symmetry_multiplicity
 _atom_site_fract_x
 _atom_site_fract_y
 _atom_site_fract_z
 _atom_site_occupancy
  U  U0  4  0.00000000  0.03139341  0.25000000  1
  U  U1  4  0.00000000  0.28127739  0.25000000  1
  U  U2  4  0.00000000  0.34378857  0.75000000  1
  U  U3  4  0.00000000  0.40611803  0.25000000  1
  Cr  Cr4  16  0.24514095  0.37504216  0.00009870  1
  Cr  Cr5  16  0.24540530  0.31248643  0.00019970  1
  Cr  Cr6  16  0.24795294  0.93777213  0.50114168  1
  Cr  Cr7  8  0.24189478  0.03123719  0.75000000  1
  Cr  Cr8  8  0.24321147  0.00000000  0.00000000  1
  Cr  Cr9  8  0.24392460  0.40613316  0.75000000  1
  Cr  Cr10  8  0.24465542  0.28136850  0.75000000  1
  Cr  Cr11  8  0.24515790  0.34376205  0.25000000  1
  Cr  Cr12  8  0.25000000  0.25000000  0.00000000  1
  Pb  Pb13  8  0.17767490  0.21880080  0.75000000  1
  Pb  Pb14  8  0.17775121  0.84374814  0.75000000  1
  Pb  Pb15  8  0.17806923  0.46888682  0.75000000  1
  Pb  Pb16  8  0.17831210  0.09367786  0.75000000  1
  Pb  Pb17  4  0.00000000  0.01049162  0.75000000  1
  Pb  Pb18  4  0.00000000  0.05241323  0.75000000  1
  Pb  Pb19  4  0.00000000  0.07337845  0.25000000  1
  Pb  Pb20  4  0.00000000  0.11467983  0.25000000  1
  Pb  Pb21  4  0.00000000  0.13542338  0.75000000  1
  Pb  Pb22  4  0.00000000  0.17707875  0.75000000  1
  Pb  Pb23  4  0.00000000  0.19793034  0.25000000  1
  Pb  Pb24  4  0.00000000  0.23955394  0.25000000  1
  Pb  Pb25  4  0.00000000  0.26044810  0.75000000  1
  Pb  Pb26  4  0.00000000  0.30213056  0.75000000  1
  Pb  Pb27  4  0.00000000  0.32292420  0.25000000  1
  Pb  Pb28  4  0.00000000  0.36454874  0.25000000  1
  Pb  Pb29  4  0.00000000  0.38545590  0.75000000  1
  Pb  Pb30  4  0.00000000  0.42731365  0.75000000  1
  Pb  Pb31  4  0.00000000  0.44804993  0.25000000  1
  Pb  Pb32  4  0.00000000  0.48960185  0.25000000  1
