# generated using pymatgen
data_U(CrSi)6
_symmetry_space_group_name_H-M   Cmcm
_cell_length_a   8.22415448
_cell_length_b   34.99335148
_cell_length_c   4.84985979
_cell_angle_alpha   90.00000000
_cell_angle_beta   90.00000000
_cell_angle_gamma   90.00000000
_symmetry_Int_Tables_number   63
_chemical_formula_structural   U(CrSi)6
_chemical_formula_sum   'U8 Cr48 Si48'
_cell_volume   1395.74468028
_cell_formula_units_Z   8
loop_
 _symmetry_equiv_pos_site_id
 _symmetry_equiv_pos_as_xyz
  1  'x, y, z'
  2  '-x, -y, -z'
  3  '-x, -y, z+1/2'
  4  'x, y, -z+1/2'
  5  'x, -y, -z'
  6  '-x, y, z'
  7  '-x, y, -z+1/2'
  8  'x, -y, z+1/2'
  9  'x+1/2, y+1/2, z'
  10  '-x+1/2, -y+1/2, -z'
  11  '-x+1/2, -y+1/2, z+1/2'
  12  'x+1/2, y+1/2, -z+1/2'
  13  'x+1/2, -y+1/2, -z'
  14  '-x+1/2, y+1/2, z'
  15  '-x+1/2, y+1/2, -z+1/2'
  16  'x+1/2, -y+1/2, z+1/2'
loop_
 _atom_site_type_symbol
 _atom_site_label
 _atom_site_symmetry_multiplicity
 _atom_site_fract_x
 _atom_site_fract_y
 _atom_site_fract_z
 _atom_site_occupancy
  U  U0  4  0.00000000  0.06377614  0.25000000  1
  U  U1  4  0.00000000  0.19374881  0.75000000  1
  Cr  Cr2  16  0.24815015  0.37643900  0.50756698  1
  Cr  Cr3  8  0.23438090  0.18929610  0.25000000  1
  Cr  Cr4  8  0.24225651  0.06323995  0.75000000  1
  Cr  Cr5  8  0.24930374  0.50000000  0.00000000  1
  Cr  Cr6  8  0.25000000  0.25000000  0.00000000  1
  Si  Si7  8  0.14545202  0.31390745  0.25000000  1
  Si  Si8  8  0.14686645  0.43907168  0.75000000  1
  Si  Si9  4  0.00000000  0.01906550  0.75000000  1
  Si  Si10  4  0.00000000  0.10893364  0.75000000  1
  Si  Si11  4  0.00000000  0.14583424  0.25000000  1
  Si  Si12  4  0.00000000  0.23879699  0.25000000  1
  Si  Si13  4  0.00000000  0.27794259  0.75000000  1
  Si  Si14  4  0.00000000  0.35004338  0.75000000  1
  Si  Si15  4  0.00000000  0.39597754  0.25000000  1
  Si  Si16  4  0.00000000  0.47768458  0.25000000  1
