# generated using pymatgen
data_U(SnRu)6
_symmetry_space_group_name_H-M   Immm
_cell_length_a   5.56487128
_cell_length_b   8.94350003
_cell_length_c   28.82990538
_cell_angle_alpha   90.00000000
_cell_angle_beta   90.00000000
_cell_angle_gamma   90.00000000
_symmetry_Int_Tables_number   71
_chemical_formula_structural   U(SnRu)6
_chemical_formula_sum   'U6 Sn36 Ru36'
_cell_volume   1434.84785516
_cell_formula_units_Z   6
loop_
 _symmetry_equiv_pos_site_id
 _symmetry_equiv_pos_as_xyz
  1  'x, y, z'
  2  '-x, -y, -z'
  3  '-x, -y, z'
  4  'x, y, -z'
  5  'x, -y, -z'
  6  '-x, y, z'
  7  '-x, y, -z'
  8  'x, -y, z'
  9  'x+1/2, y+1/2, z+1/2'
  10  '-x+1/2, -y+1/2, -z+1/2'
  11  '-x+1/2, -y+1/2, z+1/2'
  12  'x+1/2, y+1/2, -z+1/2'
  13  'x+1/2, -y+1/2, -z+1/2'
  14  '-x+1/2, y+1/2, z+1/2'
  15  '-x+1/2, y+1/2, -z+1/2'
  16  'x+1/2, -y+1/2, z+1/2'
loop_
 _atom_site_type_symbol
 _atom_site_label
 _atom_site_symmetry_multiplicity
 _atom_site_fract_x
 _atom_site_fract_y
 _atom_site_fract_z
 _atom_site_occupancy
  U  U0  4  0.00000000  0.50000000  0.33305199  1
  U  U1  2  0.00000000  0.00000000  0.00000000  1
  Sn  Sn2  8  0.00000000  0.16878028  0.33284453  1
  Sn  Sn3  4  0.00000000  0.00000000  0.11124795  1
  Sn  Sn4  4  0.00000000  0.00000000  0.22318068  1
  Sn  Sn5  4  0.00000000  0.00000000  0.44411631  1
  Sn  Sn6  4  0.00000000  0.33047451  0.00000000  1
  Sn  Sn7  4  0.00000000  0.50000000  0.11080037  1
  Sn  Sn8  4  0.00000000  0.50000000  0.22135511  1
  Sn  Sn9  4  0.00000000  0.50000000  0.44434859  1
  Ru  Ru10  16  0.24996252  0.24801775  0.08334659  1
  Ru  Ru11  8  0.00000000  0.24754326  0.16661539  1
  Ru  Ru12  8  0.25000000  0.25000000  0.25000000  1
  Ru  Ru13  4  0.00000000  0.25101347  0.50000000  1
