# generated using pymatgen
data_U(ZnSn)6
_symmetry_space_group_name_H-M   P-1
_cell_length_a   5.96526950
_cell_length_b   10.62255265
_cell_length_c   37.12793539
_cell_angle_alpha   88.62962699
_cell_angle_beta   86.12069019
_cell_angle_gamma   79.22031185
_symmetry_Int_Tables_number   2
_chemical_formula_structural   U(ZnSn)6
_chemical_formula_sum   'U8 Zn48 Sn48'
_cell_volume   2305.69963833
_cell_formula_units_Z   8
loop_
 _symmetry_equiv_pos_site_id
 _symmetry_equiv_pos_as_xyz
  1  'x, y, z'
  2  '-x, -y, -z'
loop_
 _atom_site_type_symbol
 _atom_site_label
 _atom_site_symmetry_multiplicity
 _atom_site_fract_x
 _atom_site_fract_y
 _atom_site_fract_z
 _atom_site_occupancy
  U  U0  2  0.03283528  0.40472863  0.81173735  1
  U  U1  2  0.15697390  0.03017449  0.06204070  1
  U  U2  2  0.28142378  0.65608527  0.31239263  1
  U  U3  2  0.40295931  0.28298243  0.56347263  1
  Zn  Zn4  2  0.04184740  0.40110332  0.31196335  1
  Zn  Zn5  2  0.05739284  0.81745467  0.12526294  1
  Zn  Zn6  2  0.06872576  0.30402351  0.12342218  1
  Zn  Zn7  2  0.10404573  0.13460147  0.75164289  1
  Zn  Zn8  2  0.11181842  0.20359440  0.93685761  1
  Zn  Zn9  2  0.11360581  0.62777222  0.75121775  1
  Zn  Zn10  2  0.16993078  0.02364499  0.56185158  1
  Zn  Zn11  2  0.20006889  0.43420807  0.37377531  1
  Zn  Zn12  2  0.20685592  0.92872015  0.37316580  1
  Zn  Zn13  2  0.21176910  0.84755372  0.18785865  1
  Zn  Zn14  2  0.21237584  0.77039387  0.00235016  1
  Zn  Zn15  2  0.25840865  0.23943946  0.00086574  1
  Zn  Zn16  2  0.27167472  0.66124992  0.81274625  1
  Zn  Zn17  2  0.32323772  0.05922800  0.62391153  1
  Zn  Zn18  2  0.33249750  0.55363318  0.62334386  1
  Zn  Zn19  2  0.35474589  0.46227290  0.43726266  1
  Zn  Zn20  2  0.35500970  0.38434430  0.25178609  1
  Zn  Zn21  2  0.36319432  0.87789903  0.25125601  1
  Zn  Zn22  2  0.42386876  0.69611350  0.87495054  1
  Zn  Zn23  2  0.42663903  0.26402894  0.06245365  1
  Zn  Zn24  2  0.45647761  0.17995618  0.87578822  1
  Zn  Zn25  2  0.47862850  0.08886511  0.68707936  1
  Zn  Zn26  1  0.00000000  0.00000000  0.50000000  1
  Zn  Zn27  1  0.00000000  0.50000000  0.50000000  1
  Zn  Zn28  1  0.50000000  0.00000000  0.50000000  1
  Zn  Zn29  1  0.50000000  0.50000000  0.50000000  1
  Sn  Sn30  2  0.02417167  0.03223081  0.68779104  1
  Sn  Sn31  2  0.02825321  0.06641866  0.14757664  1
  Sn  Sn32  2  0.06255780  0.73795733  0.47488972  1
  Sn  Sn33  2  0.09532919  0.55848507  0.10339523  1
  Sn  Sn34  2  0.09981312  0.87744380  0.77201182  1
  Sn  Sn35  2  0.09996930  0.59481413  0.56200716  1
  Sn  Sn36  2  0.13288727  0.69488686  0.39818222  1
  Sn  Sn37  2  0.15267820  0.64767927  0.93849310  1
  Sn  Sn38  2  0.18222668  0.36664452  0.72633125  1
  Sn  Sn39  2  0.21280411  0.18490596  0.35316644  1
  Sn  Sn40  2  0.22041767  0.50661044  0.02148860  1
  Sn  Sn41  2  0.25507358  0.32101069  0.64876572  1
  Sn  Sn42  2  0.27181692  0.28329802  0.18787118  1
  Sn  Sn43  2  0.28965391  0.03120438  0.43720241  1
  Sn  Sn44  2  0.31161459  0.98827746  0.97625483  1
  Sn  Sn45  2  0.33675769  0.09511026  0.81259668  1
  Sn  Sn46  2  0.33964236  0.80914803  0.60238194  1
  Sn  Sn47  2  0.35007450  0.12759269  0.27187846  1
  Sn  Sn48  2  0.37388019  0.95004154  0.89921673  1
  Sn  Sn49  2  0.41382507  0.65508123  0.68722811  1
  Sn  Sn50  2  0.43133509  0.61724955  0.22642445  1
  Sn  Sn51  2  0.46413266  0.71024858  0.06253739  1
  Sn  Sn52  2  0.46674995  0.75367509  0.52144348  1
  Sn  Sn53  2  0.49847988  0.42514608  0.85067686  1
