# generated using pymatgen
data_Zr6USn6
_symmetry_space_group_name_H-M   Cmcm
_cell_length_a   9.83928418
_cell_length_b   84.67808575
_cell_length_c   6.09806083
_cell_angle_alpha   90.00000000
_cell_angle_beta   90.00000000
_cell_angle_gamma   90.00000000
_symmetry_Int_Tables_number   63
_chemical_formula_structural   Zr6USn6
_chemical_formula_sum   'Zr96 U16 Sn96'
_cell_volume   5080.73201402
_cell_formula_units_Z   16
loop_
 _symmetry_equiv_pos_site_id
 _symmetry_equiv_pos_as_xyz
  1  'x, y, z'
  2  '-x, -y, -z'
  3  '-x, -y, z+1/2'
  4  'x, y, -z+1/2'
  5  'x, -y, -z'
  6  '-x, y, z'
  7  '-x, y, -z+1/2'
  8  'x, -y, z+1/2'
  9  'x+1/2, y+1/2, z'
  10  '-x+1/2, -y+1/2, -z'
  11  '-x+1/2, -y+1/2, z+1/2'
  12  'x+1/2, y+1/2, -z+1/2'
  13  'x+1/2, -y+1/2, -z'
  14  '-x+1/2, y+1/2, z'
  15  '-x+1/2, y+1/2, -z+1/2'
  16  'x+1/2, -y+1/2, z+1/2'
loop_
 _atom_site_type_symbol
 _atom_site_label
 _atom_site_symmetry_multiplicity
 _atom_site_fract_x
 _atom_site_fract_y
 _atom_site_fract_z
 _atom_site_occupancy
  Zr  Zr0  16  0.24785672  0.37499612  0.00027367  1
  Zr  Zr1  16  0.24797070  0.31248827  0.00033017  1
  Zr  Zr2  16  0.24808289  0.06250310  0.50046276  1
  Zr  Zr3  8  0.24556728  0.00000000  0.00000000  1
  Zr  Zr4  8  0.24574192  0.21876310  0.25000000  1
  Zr  Zr5  8  0.24775398  0.09380153  0.25000000  1
  Zr  Zr6  8  0.24795226  0.34375310  0.25000000  1
  Zr  Zr7  8  0.24862494  0.03115593  0.75000000  1
  Zr  Zr8  8  0.25000000  0.25000000  0.00000000  1
  U  U9  4  0.00000000  0.03110449  0.25000000  1
  U  U10  4  0.00000000  0.28175513  0.25000000  1
  U  U11  4  0.00000000  0.34376474  0.75000000  1
  U  U12  4  0.00000000  0.40593644  0.25000000  1
  Sn  Sn13  8  0.18272286  0.09374193  0.75000000  1
  Sn  Sn14  8  0.18283937  0.15623826  0.25000000  1
  Sn  Sn15  8  0.18286549  0.21886089  0.75000000  1
  Sn  Sn16  8  0.18411996  0.46866841  0.75000000  1
  Sn  Sn17  4  0.00000000  0.01050005  0.75000000  1
  Sn  Sn18  4  0.00000000  0.05069391  0.75000000  1
  Sn  Sn19  4  0.00000000  0.07140532  0.25000000  1
  Sn  Sn20  4  0.00000000  0.11488371  0.25000000  1
  Sn  Sn21  4  0.00000000  0.13544124  0.75000000  1
  Sn  Sn22  4  0.00000000  0.17705346  0.75000000  1
  Sn  Sn23  4  0.00000000  0.19754792  0.25000000  1
  Sn  Sn24  4  0.00000000  0.24176370  0.25000000  1
  Sn  Sn25  4  0.00000000  0.26241483  0.75000000  1
  Sn  Sn26  4  0.00000000  0.30196691  0.75000000  1
  Sn  Sn27  4  0.00000000  0.32292412  0.25000000  1
  Sn  Sn28  4  0.00000000  0.36459832  0.25000000  1
  Sn  Sn29  4  0.00000000  0.38553962  0.75000000  1
  Sn  Sn30  4  0.00000000  0.42545712  0.75000000  1
  Sn  Sn31  4  0.00000000  0.44606657  0.25000000  1
  Sn  Sn32  4  0.00000000  0.48978240  0.25000000  1
