# generated using pymatgen
data_U(NbSn)6
_symmetry_space_group_name_H-M   Cmcm
_cell_length_a   9.64261810
_cell_length_b   39.84301654
_cell_length_c   5.69099777
_cell_angle_alpha   90.00000000
_cell_angle_beta   90.00000000
_cell_angle_gamma   90.00000000
_symmetry_Int_Tables_number   63
_chemical_formula_structural   U(NbSn)6
_chemical_formula_sum   'U8 Nb48 Sn48'
_cell_volume   2186.43008312
_cell_formula_units_Z   8
loop_
 _symmetry_equiv_pos_site_id
 _symmetry_equiv_pos_as_xyz
  1  'x, y, z'
  2  '-x, -y, -z'
  3  '-x, -y, z+1/2'
  4  'x, y, -z+1/2'
  5  'x, -y, -z'
  6  '-x, y, z'
  7  '-x, y, -z+1/2'
  8  'x, -y, z+1/2'
  9  'x+1/2, y+1/2, z'
  10  '-x+1/2, -y+1/2, -z'
  11  '-x+1/2, -y+1/2, z+1/2'
  12  'x+1/2, y+1/2, -z+1/2'
  13  'x+1/2, -y+1/2, -z'
  14  '-x+1/2, y+1/2, z'
  15  '-x+1/2, y+1/2, -z+1/2'
  16  'x+1/2, -y+1/2, z+1/2'
loop_
 _atom_site_type_symbol
 _atom_site_label
 _atom_site_symmetry_multiplicity
 _atom_site_fract_x
 _atom_site_fract_y
 _atom_site_fract_z
 _atom_site_occupancy
  U  U0  4  0.00000000  0.06413544  0.25000000  1
  U  U1  4  0.00000000  0.19048281  0.75000000  1
  Nb  Nb2  16  0.24968048  0.37529635  0.50124715  1
  Nb  Nb3  8  0.24584560  0.81239154  0.75000000  1
  Nb  Nb4  8  0.24753970  0.06257233  0.75000000  1
  Nb  Nb5  8  0.24799622  0.00000000  0.00000000  1
  Nb  Nb6  8  0.25000000  0.25000000  0.00000000  1
  Sn  Sn7  8  0.16633241  0.31271348  0.25000000  1
  Sn  Sn8  8  0.16922257  0.43847993  0.75000000  1
  Sn  Sn9  4  0.00000000  0.02166908  0.75000000  1
  Sn  Sn10  4  0.00000000  0.10573999  0.75000000  1
  Sn  Sn11  4  0.00000000  0.14711852  0.25000000  1
  Sn  Sn12  4  0.00000000  0.23088421  0.25000000  1
  Sn  Sn13  4  0.00000000  0.27314463  0.75000000  1
  Sn  Sn14  4  0.00000000  0.35366142  0.75000000  1
  Sn  Sn15  4  0.00000000  0.39753832  0.25000000  1
  Sn  Sn16  4  0.00000000  0.47837641  0.25000000  1
