# generated using pymatgen
data_U(CrPb)6
_symmetry_space_group_name_H-M   Immm
_cell_length_a   5.73279862
_cell_length_b   9.81105919
_cell_length_c   10.00156508
_cell_angle_alpha   90.00000000
_cell_angle_beta   90.00000000
_cell_angle_gamma   90.00000000
_symmetry_Int_Tables_number   71
_chemical_formula_structural   U(CrPb)6
_chemical_formula_sum   'U2 Cr12 Pb12'
_cell_volume   562.53629274
_cell_formula_units_Z   2
loop_
 _symmetry_equiv_pos_site_id
 _symmetry_equiv_pos_as_xyz
  1  'x, y, z'
  2  '-x, -y, -z'
  3  '-x, -y, z'
  4  'x, y, -z'
  5  'x, -y, -z'
  6  '-x, y, z'
  7  '-x, y, -z'
  8  'x, -y, z'
  9  'x+1/2, y+1/2, z+1/2'
  10  '-x+1/2, -y+1/2, -z+1/2'
  11  '-x+1/2, -y+1/2, z+1/2'
  12  'x+1/2, y+1/2, -z+1/2'
  13  'x+1/2, -y+1/2, -z+1/2'
  14  '-x+1/2, y+1/2, z+1/2'
  15  '-x+1/2, y+1/2, -z+1/2'
  16  'x+1/2, -y+1/2, z+1/2'
loop_
 _atom_site_type_symbol
 _atom_site_label
 _atom_site_symmetry_multiplicity
 _atom_site_fract_x
 _atom_site_fract_y
 _atom_site_fract_z
 _atom_site_occupancy
  U  U0  2  0.00000000  0.00000000  0.50000000  1
  Cr  Cr1  8  0.25000000  0.25000000  0.25000000  1
  Cr  Cr2  4  0.00000000  0.26002587  0.00000000  1
  Pb  Pb3  4  0.00000000  0.00000000  0.16389721  1
  Pb  Pb4  4  0.00000000  0.32224275  0.50000000  1
  Pb  Pb5  4  0.00000000  0.50000000  0.16862025  1
