# generated using pymatgen
data_U(SnOs)6
_symmetry_space_group_name_H-M   Cmmm
_cell_length_a   5.63983739
_cell_length_b   48.82526725
_cell_length_c   8.97075179
_cell_angle_alpha   90.00000000
_cell_angle_beta   90.00000000
_cell_angle_gamma   90.00000000
_symmetry_Int_Tables_number   65
_chemical_formula_structural   U(SnOs)6
_chemical_formula_sum   'U10 Sn60 Os60'
_cell_volume   2470.24513327
_cell_formula_units_Z   10
loop_
 _symmetry_equiv_pos_site_id
 _symmetry_equiv_pos_as_xyz
  1  'x, y, z'
  2  '-x, -y, -z'
  3  '-x, -y, z'
  4  'x, y, -z'
  5  'x, -y, -z'
  6  '-x, y, z'
  7  '-x, y, -z'
  8  'x, -y, z'
  9  'x+1/2, y+1/2, z'
  10  '-x+1/2, -y+1/2, -z'
  11  '-x+1/2, -y+1/2, z'
  12  'x+1/2, y+1/2, -z'
  13  'x+1/2, -y+1/2, -z'
  14  '-x+1/2, y+1/2, z'
  15  '-x+1/2, y+1/2, -z'
  16  'x+1/2, -y+1/2, z'
loop_
 _atom_site_type_symbol
 _atom_site_label
 _atom_site_symmetry_multiplicity
 _atom_site_fract_x
 _atom_site_fract_y
 _atom_site_fract_z
 _atom_site_occupancy
  U  U0  4  0.00000000  0.10014734  0.00000000  1
  U  U1  4  0.00000000  0.30015473  0.50000000  1
  U  U2  2  0.00000000  0.50000000  0.00000000  1
  Sn  Sn3  8  0.00000000  0.09996699  0.32998994  1
  Sn  Sn4  8  0.00000000  0.29996128  0.17000604  1
  Sn  Sn5  4  0.00000000  0.03324144  0.50000000  1
  Sn  Sn6  4  0.00000000  0.03329014  0.00000000  1
  Sn  Sn7  4  0.00000000  0.16642342  0.50000000  1
  Sn  Sn8  4  0.00000000  0.16701695  0.00000000  1
  Sn  Sn9  4  0.00000000  0.23322687  0.00000000  1
  Sn  Sn10  4  0.00000000  0.23330975  0.50000000  1
  Sn  Sn11  4  0.00000000  0.36642201  0.00000000  1
  Sn  Sn12  4  0.00000000  0.36701572  0.50000000  1
  Sn  Sn13  4  0.00000000  0.43321971  0.50000000  1
  Sn  Sn14  4  0.00000000  0.43329410  0.00000000  1
  Sn  Sn15  4  0.00000000  0.50000000  0.32979695  1
  Os  Os16  16  0.24996314  0.05001652  0.24834327  1
  Os  Os17  16  0.24999983  0.34999950  0.24999897  1
  Os  Os18  8  0.00000000  0.19997985  0.25347831  1
  Os  Os19  8  0.00000000  0.39997747  0.24653617  1
  Os  Os20  8  0.25000000  0.25000000  0.25158909  1
  Os  Os21  4  0.00000000  0.00000000  0.24819884  1
