# generated using pymatgen
data_Hf6UGe6
_symmetry_space_group_name_H-M   Cmmm
_cell_length_a   6.01701627
_cell_length_b   52.16288518
_cell_length_c   8.36665696
_cell_angle_alpha   90.00000000
_cell_angle_beta   90.00000000
_cell_angle_gamma   90.00000000
_symmetry_Int_Tables_number   65
_chemical_formula_structural   Hf6UGe6
_chemical_formula_sum   'Hf60 U10 Ge60'
_cell_volume   2626.00018926
_cell_formula_units_Z   10
loop_
 _symmetry_equiv_pos_site_id
 _symmetry_equiv_pos_as_xyz
  1  'x, y, z'
  2  '-x, -y, -z'
  3  '-x, -y, z'
  4  'x, y, -z'
  5  'x, -y, -z'
  6  '-x, y, z'
  7  '-x, y, -z'
  8  'x, -y, z'
  9  'x+1/2, y+1/2, z'
  10  '-x+1/2, -y+1/2, -z'
  11  '-x+1/2, -y+1/2, z'
  12  'x+1/2, y+1/2, -z'
  13  'x+1/2, -y+1/2, -z'
  14  '-x+1/2, y+1/2, z'
  15  '-x+1/2, y+1/2, -z'
  16  'x+1/2, -y+1/2, z'
loop_
 _atom_site_type_symbol
 _atom_site_label
 _atom_site_symmetry_multiplicity
 _atom_site_fract_x
 _atom_site_fract_y
 _atom_site_fract_z
 _atom_site_occupancy
  Hf  Hf0  16  0.24991425  0.05002228  0.24968114  1
  Hf  Hf1  16  0.24999820  0.34999702  0.25000242  1
  Hf  Hf2  8  0.00000000  0.19999784  0.24881810  1
  Hf  Hf3  8  0.00000000  0.39999043  0.25119858  1
  Hf  Hf4  8  0.25000000  0.25000000  0.25037993  1
  Hf  Hf5  4  0.00000000  0.00000000  0.24974746  1
  U  U6  4  0.00000000  0.10024817  0.00000000  1
  U  U7  4  0.00000000  0.30023453  0.50000000  1
  U  U8  2  0.00000000  0.50000000  0.00000000  1
  Ge  Ge9  8  0.00000000  0.09995262  0.33412440  1
  Ge  Ge10  8  0.00000000  0.29995153  0.16587985  1
  Ge  Ge11  4  0.00000000  0.03325911  0.50000000  1
  Ge  Ge12  4  0.00000000  0.03326834  0.00000000  1
  Ge  Ge13  4  0.00000000  0.16555554  0.00000000  1
  Ge  Ge14  4  0.00000000  0.16773593  0.50000000  1
  Ge  Ge15  4  0.00000000  0.23323082  0.50000000  1
  Ge  Ge16  4  0.00000000  0.23329205  0.00000000  1
  Ge  Ge17  4  0.00000000  0.36555163  0.50000000  1
  Ge  Ge18  4  0.00000000  0.36773166  0.00000000  1
  Ge  Ge19  4  0.00000000  0.43322808  0.00000000  1
  Ge  Ge20  4  0.00000000  0.43328369  0.50000000  1
  Ge  Ge21  4  0.00000000  0.50000000  0.33442472  1
