# generated using pymatgen
data_U(SiOs)6
_symmetry_space_group_name_H-M   Cmcm
_cell_length_a   7.88663212
_cell_length_b   74.31079099
_cell_length_c   5.35911929
_cell_angle_alpha   90.00000000
_cell_angle_beta   90.00000000
_cell_angle_gamma   90.00000000
_symmetry_Int_Tables_number   63
_chemical_formula_structural   U(SiOs)6
_chemical_formula_sum   'U16 Si96 Os96'
_cell_volume   3140.77547759
_cell_formula_units_Z   16
loop_
 _symmetry_equiv_pos_site_id
 _symmetry_equiv_pos_as_xyz
  1  'x, y, z'
  2  '-x, -y, -z'
  3  '-x, -y, z+1/2'
  4  'x, y, -z+1/2'
  5  'x, -y, -z'
  6  '-x, y, z'
  7  '-x, y, -z+1/2'
  8  'x, -y, z+1/2'
  9  'x+1/2, y+1/2, z'
  10  '-x+1/2, -y+1/2, -z'
  11  '-x+1/2, -y+1/2, z+1/2'
  12  'x+1/2, y+1/2, -z+1/2'
  13  'x+1/2, -y+1/2, -z'
  14  '-x+1/2, y+1/2, z'
  15  '-x+1/2, y+1/2, -z+1/2'
  16  'x+1/2, -y+1/2, z+1/2'
loop_
 _atom_site_type_symbol
 _atom_site_label
 _atom_site_symmetry_multiplicity
 _atom_site_fract_x
 _atom_site_fract_y
 _atom_site_fract_z
 _atom_site_occupancy
  U  U0  4  0.00000000  0.03134125  0.25000000  1
  U  U1  4  0.00000000  0.28144400  0.25000000  1
  U  U2  4  0.00000000  0.34375524  0.75000000  1
  U  U3  4  0.00000000  0.40619659  0.25000000  1
  Si  Si4  8  0.16036683  0.15621765  0.25000000  1
  Si  Si5  8  0.16077905  0.21878297  0.75000000  1
  Si  Si6  8  0.16089146  0.09382192  0.75000000  1
  Si  Si7  8  0.16261848  0.46875605  0.75000000  1
  Si  Si8  4  0.00000000  0.01043648  0.75000000  1
  Si  Si9  4  0.00000000  0.05184115  0.75000000  1
  Si  Si10  4  0.00000000  0.07267071  0.25000000  1
  Si  Si11  4  0.00000000  0.11459077  0.25000000  1
  Si  Si12  4  0.00000000  0.13542384  0.75000000  1
  Si  Si13  4  0.00000000  0.17709983  0.75000000  1
  Si  Si14  4  0.00000000  0.19784811  0.25000000  1
  Si  Si15  4  0.00000000  0.24022036  0.25000000  1
  Si  Si16  4  0.00000000  0.26093834  0.75000000  1
  Si  Si17  4  0.00000000  0.30204409  0.75000000  1
  Si  Si18  4  0.00000000  0.32294072  0.25000000  1
  Si  Si19  4  0.00000000  0.36457292  0.25000000  1
  Si  Si20  4  0.00000000  0.38543943  0.75000000  1
  Si  Si21  4  0.00000000  0.42673171  0.75000000  1
  Si  Si22  4  0.00000000  0.44752719  0.25000000  1
  Si  Si23  4  0.00000000  0.48961649  0.25000000  1
  Os  Os24  16  0.24458026  0.12499032  0.50007023  1
  Os  Os25  16  0.24473096  0.18751385  0.00008868  1
  Os  Os26  16  0.24772652  0.06246883  0.00046035  1
  Os  Os27  8  0.24279759  0.21874401  0.25000000  1
  Os  Os28  8  0.24456277  0.15625386  0.75000000  1
  Os  Os29  8  0.24509194  0.09379013  0.25000000  1
  Os  Os30  8  0.24942204  0.50000000  0.00000000  1
  Os  Os31  8  0.24980214  0.46876616  0.25000000  1
  Os  Os32  8  0.25000000  0.25000000  0.00000000  1
