# generated using pymatgen
data_U(NbSi)6
_symmetry_space_group_name_H-M   Cmcm
_cell_length_a   8.61177931
_cell_length_b   77.08952553
_cell_length_c   5.57205606
_cell_angle_alpha   90.00000000
_cell_angle_beta   90.00000000
_cell_angle_gamma   90.00000000
_symmetry_Int_Tables_number   63
_chemical_formula_structural   U(NbSi)6
_chemical_formula_sum   'U16 Nb96 Si96'
_cell_volume   3699.16532462
_cell_formula_units_Z   16
loop_
 _symmetry_equiv_pos_site_id
 _symmetry_equiv_pos_as_xyz
  1  'x, y, z'
  2  '-x, -y, -z'
  3  '-x, -y, z+1/2'
  4  'x, y, -z+1/2'
  5  'x, -y, -z'
  6  '-x, y, z'
  7  '-x, y, -z+1/2'
  8  'x, -y, z+1/2'
  9  'x+1/2, y+1/2, z'
  10  '-x+1/2, -y+1/2, -z'
  11  '-x+1/2, -y+1/2, z+1/2'
  12  'x+1/2, y+1/2, -z+1/2'
  13  'x+1/2, -y+1/2, -z'
  14  '-x+1/2, y+1/2, z'
  15  '-x+1/2, y+1/2, -z+1/2'
  16  'x+1/2, -y+1/2, z+1/2'
loop_
 _atom_site_type_symbol
 _atom_site_label
 _atom_site_symmetry_multiplicity
 _atom_site_fract_x
 _atom_site_fract_y
 _atom_site_fract_z
 _atom_site_occupancy
  U  U0  4  0.00000000  0.09393657  0.25000000  1
  U  U1  4  0.00000000  0.15623646  0.75000000  1
  U  U2  4  0.00000000  0.21851710  0.25000000  1
  U  U3  4  0.00000000  0.46887997  0.25000000  1
  Nb  Nb4  16  0.24729183  0.43749892  0.00022646  1
  Nb  Nb5  16  0.24821697  0.37495368  0.00016029  1
  Nb  Nb6  16  0.24849520  0.68747901  0.50019429  1
  Nb  Nb7  8  0.23968062  0.28126036  0.25000000  1
  Nb  Nb8  8  0.24355414  0.40620126  0.25000000  1
  Nb  Nb9  8  0.24643552  0.50000000  0.00000000  1
  Nb  Nb10  8  0.24754354  0.65625876  0.25000000  1
  Nb  Nb11  8  0.24857076  0.03123848  0.25000000  1
  Nb  Nb12  8  0.25000000  0.25000000  0.00000000  1
  Si  Si13  8  0.16168467  0.40609828  0.75000000  1
  Si  Si14  8  0.16183333  0.28132315  0.75000000  1
  Si  Si15  8  0.16188520  0.65626315  0.75000000  1
  Si  Si16  8  0.16312866  0.03108446  0.75000000  1
  Si  Si17  4  0.00000000  0.00999410  0.25000000  1
  Si  Si18  4  0.00000000  0.05337700  0.25000000  1
  Si  Si19  4  0.00000000  0.07437702  0.75000000  1
  Si  Si20  4  0.00000000  0.11416530  0.75000000  1
  Si  Si21  4  0.00000000  0.13552032  0.25000000  1
  Si  Si22  4  0.00000000  0.17693598  0.25000000  1
  Si  Si23  4  0.00000000  0.19855450  0.75000000  1
  Si  Si24  4  0.00000000  0.23746381  0.75000000  1
  Si  Si25  4  0.00000000  0.25858872  0.25000000  1
  Si  Si26  4  0.00000000  0.30266806  0.25000000  1
  Si  Si27  4  0.00000000  0.32278950  0.75000000  1
  Si  Si28  4  0.00000000  0.36467459  0.75000000  1
  Si  Si29  4  0.00000000  0.38507667  0.25000000  1
  Si  Si30  4  0.00000000  0.42820447  0.25000000  1
  Si  Si31  4  0.00000000  0.44930457  0.75000000  1
  Si  Si32  4  0.00000000  0.48910772  0.75000000  1
