# generated using pymatgen
data_U(PbAu)6
_symmetry_space_group_name_H-M   Cmmm
_cell_length_a   5.89244428
_cell_length_b   51.33045691
_cell_length_c   10.39201672
_cell_angle_alpha   90.00000000
_cell_angle_beta   90.00000000
_cell_angle_gamma   90.00000000
_symmetry_Int_Tables_number   65
_chemical_formula_structural   U(PbAu)6
_chemical_formula_sum   'U10 Pb60 Au60'
_cell_volume   3143.18867718
_cell_formula_units_Z   10
loop_
 _symmetry_equiv_pos_site_id
 _symmetry_equiv_pos_as_xyz
  1  'x, y, z'
  2  '-x, -y, -z'
  3  '-x, -y, z'
  4  'x, y, -z'
  5  'x, -y, -z'
  6  '-x, y, z'
  7  '-x, y, -z'
  8  'x, -y, z'
  9  'x+1/2, y+1/2, z'
  10  '-x+1/2, -y+1/2, -z'
  11  '-x+1/2, -y+1/2, z'
  12  'x+1/2, y+1/2, -z'
  13  'x+1/2, -y+1/2, -z'
  14  '-x+1/2, y+1/2, z'
  15  '-x+1/2, y+1/2, -z'
  16  'x+1/2, -y+1/2, z'
loop_
 _atom_site_type_symbol
 _atom_site_label
 _atom_site_symmetry_multiplicity
 _atom_site_fract_x
 _atom_site_fract_y
 _atom_site_fract_z
 _atom_site_occupancy
  U  U0  4  0.00000000  0.09962797  0.50000000  1
  U  U1  4  0.00000000  0.29968588  0.00000000  1
  U  U2  2  0.00000000  0.50000000  0.50000000  1
  Pb  Pb3  8  0.00000000  0.09981913  0.17650088  1
  Pb  Pb4  8  0.00000000  0.29981202  0.32350543  1
  Pb  Pb5  4  0.00000000  0.03321402  0.50000000  1
  Pb  Pb6  4  0.00000000  0.03322164  0.00000000  1
  Pb  Pb7  4  0.00000000  0.16605258  0.50000000  1
  Pb  Pb8  4  0.00000000  0.16724667  0.00000000  1
  Pb  Pb9  4  0.00000000  0.23328155  0.50000000  1
  Pb  Pb10  4  0.00000000  0.23330301  0.00000000  1
  Pb  Pb11  4  0.00000000  0.36606728  0.00000000  1
  Pb  Pb12  4  0.00000000  0.36726781  0.50000000  1
  Pb  Pb13  4  0.00000000  0.43326782  0.00000000  1
  Pb  Pb14  4  0.00000000  0.43341138  0.50000000  1
  Pb  Pb15  4  0.00000000  0.50000000  0.17674516  1
  Au  Au16  16  0.24988779  0.05002415  0.25866136  1
  Au  Au17  16  0.24997589  0.65000285  0.24999638  1
  Au  Au18  8  0.00000000  0.19995014  0.23908027  1
  Au  Au19  8  0.00000000  0.39995573  0.26095987  1
  Au  Au20  8  0.25000000  0.25000000  0.24133973  1
  Au  Au21  4  0.00000000  0.00000000  0.25874097  1
