# generated using pymatgen
data_U(NiSn)6
_symmetry_space_group_name_H-M   Cmcm
_cell_length_a   8.76803883
_cell_length_b   74.49460555
_cell_length_c   5.38475583
_cell_angle_alpha   90.00000000
_cell_angle_beta   90.00000000
_cell_angle_gamma   90.00000000
_symmetry_Int_Tables_number   63
_chemical_formula_structural   U(NiSn)6
_chemical_formula_sum   'U16 Ni96 Sn96'
_cell_volume   3517.16954579
_cell_formula_units_Z   16
loop_
 _symmetry_equiv_pos_site_id
 _symmetry_equiv_pos_as_xyz
  1  'x, y, z'
  2  '-x, -y, -z'
  3  '-x, -y, z+1/2'
  4  'x, y, -z+1/2'
  5  'x, -y, -z'
  6  '-x, y, z'
  7  '-x, y, -z+1/2'
  8  'x, -y, z+1/2'
  9  'x+1/2, y+1/2, z'
  10  '-x+1/2, -y+1/2, -z'
  11  '-x+1/2, -y+1/2, z+1/2'
  12  'x+1/2, y+1/2, -z+1/2'
  13  'x+1/2, -y+1/2, -z'
  14  '-x+1/2, y+1/2, z'
  15  '-x+1/2, y+1/2, -z+1/2'
  16  'x+1/2, -y+1/2, z+1/2'
loop_
 _atom_site_type_symbol
 _atom_site_label
 _atom_site_symmetry_multiplicity
 _atom_site_fract_x
 _atom_site_fract_y
 _atom_site_fract_z
 _atom_site_occupancy
  U  U0  4  0.00000000  0.03146682  0.25000000  1
  U  U1  4  0.00000000  0.28132820  0.25000000  1
  U  U2  4  0.00000000  0.34378232  0.75000000  1
  U  U3  4  0.00000000  0.40645514  0.25000000  1
  Ni  Ni4  16  0.24627246  0.18751200  0.50012957  1
  Ni  Ni5  16  0.24634215  0.87499637  0.00005264  1
  Ni  Ni6  16  0.24683286  0.93763511  0.50140132  1
  Ni  Ni7  8  0.24544814  0.03128573  0.75000000  1
  Ni  Ni8  8  0.24634251  0.15623841  0.75000000  1
  Ni  Ni9  8  0.24719645  0.21876076  0.25000000  1
  Ni  Ni10  8  0.24773841  0.00000000  0.00000000  1
  Ni  Ni11  8  0.24849714  0.90623125  0.75000000  1
  Ni  Ni12  8  0.25000000  0.25000000  0.00000000  1
  Sn  Sn13  8  0.16824228  0.15625625  0.25000000  1
  Sn  Sn14  8  0.16875527  0.21877668  0.75000000  1
  Sn  Sn15  8  0.16893406  0.09384440  0.75000000  1
  Sn  Sn16  8  0.16949402  0.46885389  0.75000000  1
  Sn  Sn17  4  0.00000000  0.01050580  0.75000000  1
  Sn  Sn18  4  0.00000000  0.05291010  0.75000000  1
  Sn  Sn19  4  0.00000000  0.07377362  0.25000000  1
  Sn  Sn20  4  0.00000000  0.11476243  0.25000000  1
  Sn  Sn21  4  0.00000000  0.13544884  0.75000000  1
  Sn  Sn22  4  0.00000000  0.17709999  0.75000000  1
  Sn  Sn23  4  0.00000000  0.19782558  0.25000000  1
  Sn  Sn24  4  0.00000000  0.23912276  0.25000000  1
  Sn  Sn25  4  0.00000000  0.25990596  0.75000000  1
  Sn  Sn26  4  0.00000000  0.30198275  0.75000000  1
  Sn  Sn27  4  0.00000000  0.32291733  0.25000000  1
  Sn  Sn28  4  0.00000000  0.36466272  0.25000000  1
  Sn  Sn29  4  0.00000000  0.38558609  0.75000000  1
  Sn  Sn30  4  0.00000000  0.42782420  0.75000000  1
  Sn  Sn31  4  0.00000000  0.44861084  0.25000000  1
  Sn  Sn32  4  0.00000000  0.48972273  0.25000000  1
