# generated using pymatgen
data_U(RePb)6
_symmetry_space_group_name_H-M   P-1
_cell_length_a   5.35566494
_cell_length_b   11.68195033
_cell_length_c   23.68800137
_cell_angle_alpha   87.01810249
_cell_angle_beta   83.73210268
_cell_angle_gamma   77.99203162
_symmetry_Int_Tables_number   2
_chemical_formula_structural   U(RePb)6
_chemical_formula_sum   'U5 Re30 Pb30'
_cell_volume   1440.28178020
_cell_formula_units_Z   5
loop_
 _symmetry_equiv_pos_site_id
 _symmetry_equiv_pos_as_xyz
  1  'x, y, z'
  2  '-x, -y, -z'
loop_
 _atom_site_type_symbol
 _atom_site_label
 _atom_site_symmetry_multiplicity
 _atom_site_fract_x
 _atom_site_fract_y
 _atom_site_fract_z
 _atom_site_occupancy
  U  U0  2  0.19952688  0.00088358  0.60110445  1
  U  U1  2  0.39928399  0.50087862  0.20152945  1
  U  U2  1  0.00000000  0.50000000  0.00000000  1
  Re  Re3  2  0.00531088  0.77509329  0.49505968  1
  Re  Re4  2  0.07580054  0.27921220  0.79897409  1
  Re  Re5  2  0.10027791  0.25000837  0.29995198  1
  Re  Re6  2  0.10031186  0.75002573  0.29999477  1
  Re  Re7  2  0.12603523  0.72128881  0.79823552  1
  Re  Re8  2  0.19272876  0.72587196  0.10443904  1
  Re  Re9  2  0.20218287  0.27420242  0.09521284  1
  Re  Re10  2  0.27590236  0.77936495  0.39892316  1
  Re  Re11  2  0.29305958  0.72711411  0.89653206  1
  Re  Re12  2  0.30168179  0.27302715  0.90382566  1
  Re  Re13  2  0.32610849  0.22103473  0.39819622  1
  Re  Re14  2  0.40020881  0.75001731  0.70002955  1
  Re  Re15  2  0.40024867  0.24998684  0.70004503  1
  Re  Re16  2  0.47528371  0.27886080  0.00041575  1
  Re  Re17  2  0.49533434  0.22608197  0.49606670  1
  Pb  Pb18  2  0.00177284  0.16483156  0.00001558  1
  Pb  Pb19  2  0.06621923  0.99962037  0.86873524  1
  Pb  Pb20  2  0.06673244  0.50087702  0.86502225  1
  Pb  Pb21  2  0.13135451  0.00062525  0.73658174  1
  Pb  Pb22  2  0.13579304  0.49976527  0.72878325  1
  Pb  Pb23  2  0.19797118  0.33446687  0.59725081  1
  Pb  Pb24  2  0.20414124  0.66552518  0.59766501  1
  Pb  Pb25  2  0.26628189  0.49998831  0.46822334  1
  Pb  Pb26  2  0.26654450  0.00089797  0.46540199  1
  Pb  Pb27  2  0.33134300  0.50062832  0.33655725  1
  Pb  Pb28  2  0.33571570  0.99976461  0.32890024  1
  Pb  Pb29  2  0.39796267  0.83456404  0.19705305  1
  Pb  Pb30  2  0.40431508  0.16545804  0.19747824  1
  Pb  Pb31  2  0.46595963  0.50085056  0.06674018  1
  Pb  Pb32  2  0.46708855  0.99995705  0.06649294  1
