# generated using pymatgen
data_U(GePt)6
_symmetry_space_group_name_H-M   P-1
_cell_length_a   5.49661584
_cell_length_b   8.70155644
_cell_length_c   23.71528016
_cell_angle_alpha   91.96760316
_cell_angle_beta   96.14791976
_cell_angle_gamma   96.99788249
_symmetry_Int_Tables_number   2
_chemical_formula_structural   U(GePt)6
_chemical_formula_sum   'U5 Ge30 Pt30'
_cell_volume   1118.06520595
_cell_formula_units_Z   5
loop_
 _symmetry_equiv_pos_site_id
 _symmetry_equiv_pos_as_xyz
  1  'x, y, z'
  2  '-x, -y, -z'
loop_
 _atom_site_type_symbol
 _atom_site_label
 _atom_site_symmetry_multiplicity
 _atom_site_fract_x
 _atom_site_fract_y
 _atom_site_fract_z
 _atom_site_occupancy
  U  U0  2  0.19977466  0.00034480  0.39914096  1
  U  U1  2  0.39977216  0.50034803  0.79911177  1
  U  U2  1  0.00000000  0.50000000  0.00000000  1
  Ge  Ge3  2  0.00197100  0.15607825  0.00008125  1
  Ge  Ge4  2  0.06794125  0.00120218  0.13406470  1
  Ge  Ge5  2  0.06867344  0.49988572  0.13410025  1
  Ge  Ge6  2  0.13173608  0.50005775  0.26617826  1
  Ge  Ge7  2  0.13229852  0.99954853  0.26598865  1
  Ge  Ge8  2  0.19787385  0.34478549  0.40032261  1
  Ge  Ge9  2  0.20232013  0.65531211  0.40058646  1
  Ge  Ge10  2  0.26791592  0.50119963  0.53408656  1
  Ge  Ge11  2  0.26850982  0.99990569  0.53384378  1
  Ge  Ge12  2  0.33172784  0.00006595  0.66616267  1
  Ge  Ge13  2  0.33229631  0.49953928  0.66598015  1
  Ge  Ge14  2  0.39789623  0.84476704  0.80035508  1
  Ge  Ge15  2  0.40230211  0.15532016  0.80062436  1
  Ge  Ge16  2  0.46788743  0.00120028  0.93410219  1
  Ge  Ge17  2  0.46854567  0.49994440  0.93380064  1
  Pt  Pt18  2  0.00222314  0.25323998  0.50020140  1
  Pt  Pt19  2  0.09793514  0.24729647  0.19987515  1
  Pt  Pt20  2  0.09999918  0.74999130  0.69999026  1
  Pt  Pt21  2  0.10000433  0.25000301  0.69998158  1
  Pt  Pt22  2  0.10200117  0.75245129  0.20010414  1
  Pt  Pt23  2  0.19761321  0.24685578  0.89973282  1
  Pt  Pt24  2  0.20235123  0.75321247  0.90014845  1
  Pt  Pt25  2  0.29783654  0.24584799  0.10002051  1
  Pt  Pt26  2  0.29787295  0.74731046  0.59985041  1
  Pt  Pt27  2  0.30200793  0.25242500  0.60005502  1
  Pt  Pt28  2  0.30230090  0.75429377  0.10004094  1
  Pt  Pt29  2  0.40001503  0.74998377  0.30001548  1
  Pt  Pt30  2  0.40001702  0.24999834  0.30001205  1
  Pt  Pt31  2  0.49734391  0.24542721  0.99978813  1
  Pt  Pt32  2  0.49795601  0.74570945  0.50004632  1
