# generated using pymatgen
data_U(SiPt)6
_symmetry_space_group_name_H-M   Immm
_cell_length_a   5.59564563
_cell_length_b   7.74200438
_cell_length_c   29.27242903
_cell_angle_alpha   90.00000000
_cell_angle_beta   90.00000000
_cell_angle_gamma   90.00000000
_symmetry_Int_Tables_number   71
_chemical_formula_structural   U(SiPt)6
_chemical_formula_sum   'U6 Si36 Pt36'
_cell_volume   1268.12591458
_cell_formula_units_Z   6
loop_
 _symmetry_equiv_pos_site_id
 _symmetry_equiv_pos_as_xyz
  1  'x, y, z'
  2  '-x, -y, -z'
  3  '-x, -y, z'
  4  'x, y, -z'
  5  'x, -y, -z'
  6  '-x, y, z'
  7  '-x, y, -z'
  8  'x, -y, z'
  9  'x+1/2, y+1/2, z+1/2'
  10  '-x+1/2, -y+1/2, -z+1/2'
  11  '-x+1/2, -y+1/2, z+1/2'
  12  'x+1/2, y+1/2, -z+1/2'
  13  'x+1/2, -y+1/2, -z+1/2'
  14  '-x+1/2, y+1/2, z+1/2'
  15  '-x+1/2, y+1/2, -z+1/2'
  16  'x+1/2, -y+1/2, z+1/2'
loop_
 _atom_site_type_symbol
 _atom_site_label
 _atom_site_symmetry_multiplicity
 _atom_site_fract_x
 _atom_site_fract_y
 _atom_site_fract_z
 _atom_site_occupancy
  U  U0  4  0.00000000  0.00000000  0.16432151  1
  U  U1  2  0.00000000  0.50000000  0.50000000  1
  Si  Si2  8  0.00000000  0.35139413  0.83125850  1
  Si  Si3  4  0.00000000  0.00000000  0.05533877  1
  Si  Si4  4  0.00000000  0.00000000  0.26963496  1
  Si  Si5  4  0.00000000  0.00000000  0.38899655  1
  Si  Si6  4  0.00000000  0.14889558  0.50000000  1
  Si  Si7  4  0.00000000  0.50000000  0.05629677  1
  Si  Si8  4  0.00000000  0.50000000  0.28569848  1
  Si  Si9  4  0.00000000  0.50000000  0.38782946  1
  Pt  Pt10  16  0.24971794  0.24436049  0.41686355  1
  Pt  Pt11  8  0.00000000  0.24117318  0.33350765  1
  Pt  Pt12  8  0.25000000  0.25000000  0.25000000  1
  Pt  Pt13  4  0.00000000  0.25720974  0.00000000  1
