# generated using pymatgen
data_U(OsPb)6
_symmetry_space_group_name_H-M   C2/m
_cell_length_a   27.63380917
_cell_length_b   10.16499865
_cell_length_c   5.78219639
_cell_angle_alpha   90.00000000
_cell_angle_beta   94.01000347
_cell_angle_gamma   90.00000000
_symmetry_Int_Tables_number   12
_chemical_formula_structural   U(OsPb)6
_chemical_formula_sum   'U6 Os36 Pb36'
_cell_volume   1620.22898900
_cell_formula_units_Z   6
loop_
 _symmetry_equiv_pos_site_id
 _symmetry_equiv_pos_as_xyz
  1  'x, y, z'
  2  '-x, -y, -z'
  3  '-x, y, -z'
  4  'x, -y, z'
  5  'x+1/2, y+1/2, z'
  6  '-x+1/2, -y+1/2, -z'
  7  '-x+1/2, y+1/2, -z'
  8  'x+1/2, -y+1/2, z'
loop_
 _atom_site_type_symbol
 _atom_site_label
 _atom_site_symmetry_multiplicity
 _atom_site_fract_x
 _atom_site_fract_y
 _atom_site_fract_z
 _atom_site_occupancy
  U  U0  4  0.16803793  0.00000000  0.67579249  1
  U  U1  2  0.00000000  0.00000000  0.00000000  1
  Os  Os2  8  0.08251634  0.20850631  0.83632111  1
  Os  Os3  8  0.08340128  0.24443735  0.33264293  1
  Os  Os4  8  0.16711122  0.23817267  0.16758061  1
  Os  Os5  4  0.00000000  0.24369004  0.50000000  1
  Os  Os6  4  0.25000000  0.25000000  0.00000000  1
  Os  Os7  4  0.25000000  0.25000000  0.50000000  1
  Pb  Pb8  8  0.16388639  0.32188650  0.66992331  1
  Pb  Pb9  4  0.00000000  0.32347486  0.00000000  1
  Pb  Pb10  4  0.05520183  0.00000000  0.54677717  1
  Pb  Pb11  4  0.05553181  0.50000000  0.55968426  1
  Pb  Pb12  4  0.10906636  0.50000000  0.10509859  1
  Pb  Pb13  4  0.11348515  0.00000000  0.12232948  1
  Pb  Pb14  4  0.21969852  0.50000000  0.23757088  1
  Pb  Pb15  4  0.22791811  0.00000000  0.23003655  1
