# generated using pymatgen
data_U(CuSn)6
_symmetry_space_group_name_H-M   Cmcm
_cell_length_a   9.14721444
_cell_length_b   38.33119184
_cell_length_c   5.52814712
_cell_angle_alpha   90.00000000
_cell_angle_beta   90.00000000
_cell_angle_gamma   90.00000000
_symmetry_Int_Tables_number   63
_chemical_formula_structural   U(CuSn)6
_chemical_formula_sum   'U8 Cu48 Sn48'
_cell_volume   1938.29901896
_cell_formula_units_Z   8
loop_
 _symmetry_equiv_pos_site_id
 _symmetry_equiv_pos_as_xyz
  1  'x, y, z'
  2  '-x, -y, -z'
  3  '-x, -y, z+1/2'
  4  'x, y, -z+1/2'
  5  'x, -y, -z'
  6  '-x, y, z'
  7  '-x, y, -z+1/2'
  8  'x, -y, z+1/2'
  9  'x+1/2, y+1/2, z'
  10  '-x+1/2, -y+1/2, -z'
  11  '-x+1/2, -y+1/2, z+1/2'
  12  'x+1/2, y+1/2, -z+1/2'
  13  'x+1/2, -y+1/2, -z'
  14  '-x+1/2, y+1/2, z'
  15  '-x+1/2, y+1/2, -z+1/2'
  16  'x+1/2, -y+1/2, z+1/2'
loop_
 _atom_site_type_symbol
 _atom_site_label
 _atom_site_symmetry_multiplicity
 _atom_site_fract_x
 _atom_site_fract_y
 _atom_site_fract_z
 _atom_site_occupancy
  U  U0  4  0.00000000  0.31013863  0.25000000  1
  U  U1  4  0.00000000  0.43604295  0.75000000  1
  Cu  Cu2  16  0.24604432  0.37522985  0.50640825  1
  Cu  Cu3  8  0.24134216  0.50000000  0.00000000  1
  Cu  Cu4  8  0.24274167  0.31133653  0.75000000  1
  Cu  Cu5  8  0.24411334  0.43739324  0.25000000  1
  Cu  Cu6  8  0.25000000  0.25000000  0.00000000  1
  Sn  Sn7  8  0.16885178  0.18649360  0.75000000  1
  Sn  Sn8  8  0.17012936  0.06023058  0.25000000  1
  Sn  Sn9  4  0.00000000  0.02191592  0.75000000  1
  Sn  Sn10  4  0.00000000  0.10351104  0.75000000  1
  Sn  Sn11  4  0.00000000  0.14444514  0.25000000  1
  Sn  Sn12  4  0.00000000  0.22682140  0.25000000  1
  Sn  Sn13  4  0.00000000  0.27027067  0.75000000  1
  Sn  Sn14  4  0.00000000  0.35277905  0.75000000  1
  Sn  Sn15  4  0.00000000  0.39464902  0.25000000  1
  Sn  Sn16  4  0.00000000  0.47880619  0.25000000  1
