# generated using pymatgen
data_U(SiRu)6
_symmetry_space_group_name_H-M   Cmcm
_cell_length_a   7.70955935
_cell_length_b   37.45524735
_cell_length_c   5.35192103
_cell_angle_alpha   90.00000000
_cell_angle_beta   90.00000000
_cell_angle_gamma   90.00000000
_symmetry_Int_Tables_number   63
_chemical_formula_structural   U(SiRu)6
_chemical_formula_sum   'U8 Si48 Ru48'
_cell_volume   1545.43919452
_cell_formula_units_Z   8
loop_
 _symmetry_equiv_pos_site_id
 _symmetry_equiv_pos_as_xyz
  1  'x, y, z'
  2  '-x, -y, -z'
  3  '-x, -y, z+1/2'
  4  'x, y, -z+1/2'
  5  'x, -y, -z'
  6  '-x, y, z'
  7  '-x, y, -z+1/2'
  8  'x, -y, z+1/2'
  9  'x+1/2, y+1/2, z'
  10  '-x+1/2, -y+1/2, -z'
  11  '-x+1/2, -y+1/2, z+1/2'
  12  'x+1/2, y+1/2, -z+1/2'
  13  'x+1/2, -y+1/2, -z'
  14  '-x+1/2, y+1/2, z'
  15  '-x+1/2, y+1/2, -z+1/2'
  16  'x+1/2, -y+1/2, z+1/2'
loop_
 _atom_site_type_symbol
 _atom_site_label
 _atom_site_symmetry_multiplicity
 _atom_site_fract_x
 _atom_site_fract_y
 _atom_site_fract_z
 _atom_site_occupancy
  U  U0  4  0.00000000  0.06768048  0.25000000  1
  U  U1  4  0.00000000  0.18996913  0.75000000  1
  Si  Si2  8  0.15334559  0.31425804  0.25000000  1
  Si  Si3  8  0.15371227  0.44542177  0.75000000  1
  Si  Si4  4  0.00000000  0.02251812  0.75000000  1
  Si  Si5  4  0.00000000  0.10562520  0.75000000  1
  Si  Si6  4  0.00000000  0.14731545  0.25000000  1
  Si  Si7  4  0.00000000  0.22925923  0.25000000  1
  Si  Si8  4  0.00000000  0.27288241  0.75000000  1
  Si  Si9  4  0.00000000  0.35523212  0.75000000  1
  Si  Si10  4  0.00000000  0.39611750  0.25000000  1
  Si  Si11  4  0.00000000  0.47835772  0.25000000  1
  Ru  Ru12  16  0.24466014  0.37422559  0.00200254  1
  Ru  Ru13  8  0.24483570  0.43735420  0.25000000  1
  Ru  Ru14  8  0.24651830  0.50000000  0.00000000  1
  Ru  Ru15  8  0.24718656  0.31231056  0.75000000  1
  Ru  Ru16  8  0.25000000  0.25000000  0.00000000  1
