# generated using pymatgen
data_U(HgGe)6
_symmetry_space_group_name_H-M   Cmcm
_cell_length_a   8.50994993
_cell_length_b   87.61192427
_cell_length_c   6.10280396
_cell_angle_alpha   90.00000000
_cell_angle_beta   90.00000000
_cell_angle_gamma   90.00000000
_symmetry_Int_Tables_number   63
_chemical_formula_structural   U(HgGe)6
_chemical_formula_sum   'U16 Hg96 Ge96'
_cell_volume   4550.08639638
_cell_formula_units_Z   16
loop_
 _symmetry_equiv_pos_site_id
 _symmetry_equiv_pos_as_xyz
  1  'x, y, z'
  2  '-x, -y, -z'
  3  '-x, -y, z+1/2'
  4  'x, y, -z+1/2'
  5  'x, -y, -z'
  6  '-x, y, z'
  7  '-x, y, -z+1/2'
  8  'x, -y, z+1/2'
  9  'x+1/2, y+1/2, z'
  10  '-x+1/2, -y+1/2, -z'
  11  '-x+1/2, -y+1/2, z+1/2'
  12  'x+1/2, y+1/2, -z+1/2'
  13  'x+1/2, -y+1/2, -z'
  14  '-x+1/2, y+1/2, z'
  15  '-x+1/2, y+1/2, -z+1/2'
  16  'x+1/2, -y+1/2, z+1/2'
loop_
 _atom_site_type_symbol
 _atom_site_label
 _atom_site_symmetry_multiplicity
 _atom_site_fract_x
 _atom_site_fract_y
 _atom_site_fract_z
 _atom_site_occupancy
  U  U0  4  0.00000000  0.03071141  0.25000000  1
  U  U1  4  0.00000000  0.28255374  0.25000000  1
  U  U2  4  0.00000000  0.34376105  0.75000000  1
  U  U3  4  0.00000000  0.40488296  0.25000000  1
  Hg  Hg4  16  0.24681832  0.06260282  0.00002016  1
  Hg  Hg5  16  0.24947089  0.12531891  0.00092684  1
  Hg  Hg6  16  0.24989313  0.18720303  0.00094374  1
  Hg  Hg7  8  0.24355220  0.21853123  0.25000000  1
  Hg  Hg8  8  0.24432787  0.00000000  0.00000000  1
  Hg  Hg9  8  0.24635455  0.90595666  0.75000000  1
  Hg  Hg10  8  0.24890515  0.03120305  0.75000000  1
  Hg  Hg11  8  0.24909460  0.34374453  0.25000000  1
  Hg  Hg12  8  0.25000000  0.25000000  0.00000000  1
  Ge  Ge13  8  0.14316881  0.09353559  0.75000000  1
  Ge  Ge14  8  0.14320112  0.21918828  0.75000000  1
  Ge  Ge15  8  0.14328618  0.46844519  0.75000000  1
  Ge  Ge16  8  0.14388897  0.15623948  0.25000000  1
  Ge  Ge17  4  0.00000000  0.01123134  0.75000000  1
  Ge  Ge18  4  0.00000000  0.04742672  0.75000000  1
  Ge  Ge19  4  0.00000000  0.06743543  0.25000000  1
  Ge  Ge20  4  0.00000000  0.11472030  0.25000000  1
  Ge  Ge21  4  0.00000000  0.13504023  0.75000000  1
  Ge  Ge22  4  0.00000000  0.17751506  0.75000000  1
  Ge  Ge23  4  0.00000000  0.19798860  0.25000000  1
  Ge  Ge24  4  0.00000000  0.24573649  0.25000000  1
  Ge  Ge25  4  0.00000000  0.26616631  0.75000000  1
  Ge  Ge26  4  0.00000000  0.30204876  0.75000000  1
  Ge  Ge27  4  0.00000000  0.32373444  0.25000000  1
  Ge  Ge28  4  0.00000000  0.36381013  0.25000000  1
  Ge  Ge29  4  0.00000000  0.38537587  0.75000000  1
  Ge  Ge30  4  0.00000000  0.42164633  0.75000000  1
  Ge  Ge31  4  0.00000000  0.44169712  0.25000000  1
  Ge  Ge32  4  0.00000000  0.49057112  0.25000000  1
