# generated using pymatgen
data_Zr6UPb6
_symmetry_space_group_name_H-M   Immm
_cell_length_a   6.02818401
_cell_length_b   10.39159568
_cell_length_c   31.28593048
_cell_angle_alpha   90.00000000
_cell_angle_beta   90.00000000
_cell_angle_gamma   90.00000000
_symmetry_Int_Tables_number   71
_chemical_formula_structural   Zr6UPb6
_chemical_formula_sum   'Zr36 U6 Pb36'
_cell_volume   1959.82736463
_cell_formula_units_Z   6
loop_
 _symmetry_equiv_pos_site_id
 _symmetry_equiv_pos_as_xyz
  1  'x, y, z'
  2  '-x, -y, -z'
  3  '-x, -y, z'
  4  'x, y, -z'
  5  'x, -y, -z'
  6  '-x, y, z'
  7  '-x, y, -z'
  8  'x, -y, z'
  9  'x+1/2, y+1/2, z+1/2'
  10  '-x+1/2, -y+1/2, -z+1/2'
  11  '-x+1/2, -y+1/2, z+1/2'
  12  'x+1/2, y+1/2, -z+1/2'
  13  'x+1/2, -y+1/2, -z+1/2'
  14  '-x+1/2, y+1/2, z+1/2'
  15  '-x+1/2, y+1/2, -z+1/2'
  16  'x+1/2, -y+1/2, z+1/2'
loop_
 _atom_site_type_symbol
 _atom_site_label
 _atom_site_symmetry_multiplicity
 _atom_site_fract_x
 _atom_site_fract_y
 _atom_site_fract_z
 _atom_site_occupancy
  Zr  Zr0  16  0.24989589  0.24743120  0.41666069  1
  Zr  Zr1  8  0.00000000  0.24837478  0.33326096  1
  Zr  Zr2  8  0.25000000  0.25000000  0.25000000  1
  Zr  Zr3  4  0.00000000  0.25231055  0.00000000  1
  U  U4  4  0.00000000  0.50000000  0.16650306  1
  U  U5  2  0.00000000  0.00000000  0.50000000  1
  Pb  Pb6  8  0.00000000  0.16053718  0.16688065  1
  Pb  Pb7  4  0.00000000  0.00000000  0.05579161  1
  Pb  Pb8  4  0.00000000  0.00000000  0.27827418  1
  Pb  Pb9  4  0.00000000  0.00000000  0.38865273  1
  Pb  Pb10  4  0.00000000  0.33797285  0.50000000  1
  Pb  Pb11  4  0.00000000  0.50000000  0.05562647  1
  Pb  Pb12  4  0.00000000  0.50000000  0.27710486  1
  Pb  Pb13  4  0.00000000  0.50000000  0.38936042  1
