# generated using pymatgen
data_U(SiRh)6
_symmetry_space_group_name_H-M   Cmcm
_cell_length_a   7.70669776
_cell_length_b   37.73853620
_cell_length_c   5.41319780
_cell_angle_alpha   90.00000000
_cell_angle_beta   90.00000000
_cell_angle_gamma   90.00000000
_symmetry_Int_Tables_number   63
_chemical_formula_structural   U(SiRh)6
_chemical_formula_sum   'U8 Si48 Rh48'
_cell_volume   1574.37170125
_cell_formula_units_Z   8
loop_
 _symmetry_equiv_pos_site_id
 _symmetry_equiv_pos_as_xyz
  1  'x, y, z'
  2  '-x, -y, -z'
  3  '-x, -y, z+1/2'
  4  'x, y, -z+1/2'
  5  'x, -y, -z'
  6  '-x, y, z'
  7  '-x, y, -z+1/2'
  8  'x, -y, z+1/2'
  9  'x+1/2, y+1/2, z'
  10  '-x+1/2, -y+1/2, -z'
  11  '-x+1/2, -y+1/2, z+1/2'
  12  'x+1/2, y+1/2, -z+1/2'
  13  'x+1/2, -y+1/2, -z'
  14  '-x+1/2, y+1/2, z'
  15  '-x+1/2, y+1/2, -z+1/2'
  16  'x+1/2, -y+1/2, z+1/2'
loop_
 _atom_site_type_symbol
 _atom_site_label
 _atom_site_symmetry_multiplicity
 _atom_site_fract_x
 _atom_site_fract_y
 _atom_site_fract_z
 _atom_site_occupancy
  U  U0  4  0.00000000  0.31193701  0.75000000  1
  U  U1  4  0.00000000  0.43405878  0.25000000  1
  Si  Si2  8  0.15871602  0.94418670  0.25000000  1
  Si  Si3  8  0.15918041  0.18560707  0.25000000  1
  Si  Si4  4  0.00000000  0.02155781  0.25000000  1
  Si  Si5  4  0.00000000  0.10398647  0.25000000  1
  Si  Si6  4  0.00000000  0.14590394  0.75000000  1
  Si  Si7  4  0.00000000  0.22982982  0.75000000  1
  Si  Si8  4  0.00000000  0.27211812  0.25000000  1
  Si  Si9  4  0.00000000  0.35293101  0.25000000  1
  Si  Si10  4  0.00000000  0.39456871  0.75000000  1
  Si  Si11  4  0.00000000  0.47755934  0.75000000  1
  Rh  Rh12  16  0.24454334  0.87419850  0.50156129  1
  Rh  Rh13  8  0.24479366  0.81228123  0.25000000  1
  Rh  Rh14  8  0.24605508  0.06268667  0.25000000  1
  Rh  Rh15  8  0.24826891  0.00000000  0.00000000  1
  Rh  Rh16  8  0.25000000  0.25000000  0.00000000  1
