# generated using pymatgen
data_U(GeW)6
_symmetry_space_group_name_H-M   Immm
_cell_length_a   5.40561705
_cell_length_b   8.98765819
_cell_length_c   28.12146669
_cell_angle_alpha   90.00000000
_cell_angle_beta   90.00000000
_cell_angle_gamma   90.00000000
_symmetry_Int_Tables_number   71
_chemical_formula_structural   U(GeW)6
_chemical_formula_sum   'U6 Ge36 W36'
_cell_volume   1366.24879076
_cell_formula_units_Z   6
loop_
 _symmetry_equiv_pos_site_id
 _symmetry_equiv_pos_as_xyz
  1  'x, y, z'
  2  '-x, -y, -z'
  3  '-x, -y, z'
  4  'x, y, -z'
  5  'x, -y, -z'
  6  '-x, y, z'
  7  '-x, y, -z'
  8  'x, -y, z'
  9  'x+1/2, y+1/2, z+1/2'
  10  '-x+1/2, -y+1/2, -z+1/2'
  11  '-x+1/2, -y+1/2, z+1/2'
  12  'x+1/2, y+1/2, -z+1/2'
  13  'x+1/2, -y+1/2, -z+1/2'
  14  '-x+1/2, y+1/2, z+1/2'
  15  '-x+1/2, y+1/2, -z+1/2'
  16  'x+1/2, -y+1/2, z+1/2'
loop_
 _atom_site_type_symbol
 _atom_site_label
 _atom_site_symmetry_multiplicity
 _atom_site_fract_x
 _atom_site_fract_y
 _atom_site_fract_z
 _atom_site_occupancy
  U  U0  4  0.00000000  0.50000000  0.33400908  1
  U  U1  2  0.00000000  0.00000000  0.00000000  1
  Ge  Ge2  8  0.00000000  0.17325444  0.33299990  1
  Ge  Ge3  4  0.00000000  0.00000000  0.11133503  1
  Ge  Ge4  4  0.00000000  0.00000000  0.21823772  1
  Ge  Ge5  4  0.00000000  0.00000000  0.44394762  1
  Ge  Ge6  4  0.00000000  0.32513486  0.00000000  1
  Ge  Ge7  4  0.00000000  0.50000000  0.11048162  1
  Ge  Ge8  4  0.00000000  0.50000000  0.22600197  1
  Ge  Ge9  4  0.00000000  0.50000000  0.44461072  1
  W  W10  16  0.24996845  0.24789131  0.41665477  1
  W  W11  8  0.00000000  0.25374411  0.16668712  1
  W  W12  8  0.25000000  0.25000000  0.25000000  1
  W  W13  4  0.00000000  0.24733338  0.50000000  1
