# generated using pymatgen
data_U(NiSn)6
_symmetry_space_group_name_H-M   Cmmm
_cell_length_a   5.38558496
_cell_length_b   46.56262084
_cell_length_c   8.76307559
_cell_angle_alpha   90.00000000
_cell_angle_beta   90.00000000
_cell_angle_gamma   90.00000000
_symmetry_Int_Tables_number   65
_chemical_formula_structural   U(NiSn)6
_chemical_formula_sum   'U10 Ni60 Sn60'
_cell_volume   2197.48974123
_cell_formula_units_Z   10
loop_
 _symmetry_equiv_pos_site_id
 _symmetry_equiv_pos_as_xyz
  1  'x, y, z'
  2  '-x, -y, -z'
  3  '-x, -y, z'
  4  'x, y, -z'
  5  'x, -y, -z'
  6  '-x, y, z'
  7  '-x, y, -z'
  8  'x, -y, z'
  9  'x+1/2, y+1/2, z'
  10  '-x+1/2, -y+1/2, -z'
  11  '-x+1/2, -y+1/2, z'
  12  'x+1/2, y+1/2, -z'
  13  'x+1/2, -y+1/2, -z'
  14  '-x+1/2, y+1/2, z'
  15  '-x+1/2, y+1/2, -z'
  16  'x+1/2, -y+1/2, z'
loop_
 _atom_site_type_symbol
 _atom_site_label
 _atom_site_symmetry_multiplicity
 _atom_site_fract_x
 _atom_site_fract_y
 _atom_site_fract_z
 _atom_site_occupancy
  U  U0  4  0.00000000  0.10028301  0.50000000  1
  U  U1  4  0.00000000  0.30023163  0.00000000  1
  U  U2  2  0.00000000  0.50000000  0.50000000  1
  Ni  Ni3  16  0.24996888  0.04998904  0.24952988  1
  Ni  Ni4  16  0.24999410  0.14999908  0.24999532  1
  Ni  Ni5  8  0.00000000  0.19999541  0.24869852  1
  Ni  Ni6  8  0.00000000  0.40000015  0.25122620  1
  Ni  Ni7  8  0.25000000  0.25000000  0.25045601  1
  Ni  Ni8  4  0.00000000  0.00000000  0.24966653  1
  Sn  Sn9  8  0.00000000  0.09984193  0.16892015  1
  Sn  Sn10  8  0.00000000  0.29987026  0.33103765  1
  Sn  Sn11  4  0.00000000  0.03319976  0.00000000  1
  Sn  Sn12  4  0.00000000  0.03339911  0.50000000  1
  Sn  Sn13  4  0.00000000  0.16565756  0.00000000  1
  Sn  Sn14  4  0.00000000  0.16779776  0.50000000  1
  Sn  Sn15  4  0.00000000  0.23318958  0.00000000  1
  Sn  Sn16  4  0.00000000  0.23342227  0.50000000  1
  Sn  Sn17  4  0.00000000  0.36564559  0.50000000  1
  Sn  Sn18  4  0.00000000  0.36779648  0.00000000  1
  Sn  Sn19  4  0.00000000  0.43309289  0.50000000  1
  Sn  Sn20  4  0.00000000  0.43345837  0.00000000  1
  Sn  Sn21  4  0.00000000  0.50000000  0.16840088  1
