# generated using pymatgen
data_U(TaPb)6
_symmetry_space_group_name_H-M   Cmmm
_cell_length_a   5.81799212
_cell_length_b   50.52322679
_cell_length_c   10.19737352
_cell_angle_alpha   90.00000000
_cell_angle_beta   90.00000000
_cell_angle_gamma   90.00000000
_symmetry_Int_Tables_number   65
_chemical_formula_structural   U(TaPb)6
_chemical_formula_sum   'U10 Ta60 Pb60'
_cell_volume   2997.45406225
_cell_formula_units_Z   10
loop_
 _symmetry_equiv_pos_site_id
 _symmetry_equiv_pos_as_xyz
  1  'x, y, z'
  2  '-x, -y, -z'
  3  '-x, -y, z'
  4  'x, y, -z'
  5  'x, -y, -z'
  6  '-x, y, z'
  7  '-x, y, -z'
  8  'x, -y, z'
  9  'x+1/2, y+1/2, z'
  10  '-x+1/2, -y+1/2, -z'
  11  '-x+1/2, -y+1/2, z'
  12  'x+1/2, y+1/2, -z'
  13  'x+1/2, -y+1/2, -z'
  14  '-x+1/2, y+1/2, z'
  15  '-x+1/2, y+1/2, -z'
  16  'x+1/2, -y+1/2, z'
loop_
 _atom_site_type_symbol
 _atom_site_label
 _atom_site_symmetry_multiplicity
 _atom_site_fract_x
 _atom_site_fract_y
 _atom_site_fract_z
 _atom_site_occupancy
  U  U0  4  0.00000000  0.09983471  0.50000000  1
  U  U1  4  0.00000000  0.29983805  0.00000000  1
  U  U2  2  0.00000000  0.50000000  0.50000000  1
  Ta  Ta3  16  0.24998679  0.45001739  0.25610664  1
  Ta  Ta4  16  0.24999922  0.35000089  0.24999820  1
  Ta  Ta5  8  0.00000000  0.20002823  0.24385892  1
  Ta  Ta6  8  0.00000000  0.40003405  0.25614747  1
  Ta  Ta7  8  0.25000000  0.25000000  0.24387240  1
  Ta  Ta8  4  0.00000000  0.00000000  0.25626484  1
  Pb  Pb9  8  0.00000000  0.09986990  0.17141348  1
  Pb  Pb10  8  0.00000000  0.29987651  0.32860167  1
  Pb  Pb11  4  0.00000000  0.03321614  0.00000000  1
  Pb  Pb12  4  0.00000000  0.03327860  0.50000000  1
  Pb  Pb13  4  0.00000000  0.16654693  0.50000000  1
  Pb  Pb14  4  0.00000000  0.16694569  0.00000000  1
  Pb  Pb15  4  0.00000000  0.23326675  0.00000000  1
  Pb  Pb16  4  0.00000000  0.23328537  0.50000000  1
  Pb  Pb17  4  0.00000000  0.36654870  0.00000000  1
  Pb  Pb18  4  0.00000000  0.36694671  0.50000000  1
  Pb  Pb19  4  0.00000000  0.43327640  0.50000000  1
  Pb  Pb20  4  0.00000000  0.43328285  0.00000000  1
  Pb  Pb21  4  0.00000000  0.50000000  0.17155517  1
