# generated using pymatgen
data_U(SnW)6
_symmetry_space_group_name_H-M   Cmcm
_cell_length_a   9.65474745
_cell_length_b   38.83140353
_cell_length_c   5.59744084
_cell_angle_alpha   90.00000000
_cell_angle_beta   90.00000000
_cell_angle_gamma   90.00000000
_symmetry_Int_Tables_number   63
_chemical_formula_structural   U(SnW)6
_chemical_formula_sum   'U8 Sn48 W48'
_cell_volume   2098.52195989
_cell_formula_units_Z   8
loop_
 _symmetry_equiv_pos_site_id
 _symmetry_equiv_pos_as_xyz
  1  'x, y, z'
  2  '-x, -y, -z'
  3  '-x, -y, z+1/2'
  4  'x, y, -z+1/2'
  5  'x, -y, -z'
  6  '-x, y, z'
  7  '-x, y, -z+1/2'
  8  'x, -y, z+1/2'
  9  'x+1/2, y+1/2, z'
  10  '-x+1/2, -y+1/2, -z'
  11  '-x+1/2, -y+1/2, z+1/2'
  12  'x+1/2, y+1/2, -z+1/2'
  13  'x+1/2, -y+1/2, -z'
  14  '-x+1/2, y+1/2, z'
  15  '-x+1/2, y+1/2, -z+1/2'
  16  'x+1/2, -y+1/2, z+1/2'
loop_
 _atom_site_type_symbol
 _atom_site_label
 _atom_site_symmetry_multiplicity
 _atom_site_fract_x
 _atom_site_fract_y
 _atom_site_fract_z
 _atom_site_occupancy
  U  U0  4  0.00000000  0.06369391  0.75000000  1
  U  U1  4  0.00000000  0.18876937  0.25000000  1
  Sn  Sn2  8  0.18203773  0.31279993  0.75000000  1
  Sn  Sn3  8  0.18280738  0.43808038  0.25000000  1
  Sn  Sn4  4  0.00000000  0.02124367  0.25000000  1
  Sn  Sn5  4  0.00000000  0.10505584  0.25000000  1
  Sn  Sn6  4  0.00000000  0.14641087  0.75000000  1
  Sn  Sn7  4  0.00000000  0.22884528  0.75000000  1
  Sn  Sn8  4  0.00000000  0.27107536  0.25000000  1
  Sn  Sn9  4  0.00000000  0.35470149  0.25000000  1
  Sn  Sn10  4  0.00000000  0.39649485  0.75000000  1
  Sn  Sn11  4  0.00000000  0.47894298  0.75000000  1
  W  W12  16  0.24962242  0.87515162  0.00173806  1
  W  W13  8  0.24798736  0.18746716  0.75000000  1
  W  W14  8  0.24834717  0.00000000  0.00000000  1
  W  W15  8  0.24869809  0.06266387  0.25000000  1
  W  W16  8  0.25000000  0.25000000  0.00000000  1
