# generated using pymatgen
data_U(ReGe)6
_symmetry_space_group_name_H-M   Immm
_cell_length_a   5.33218775
_cell_length_b   8.82594870
_cell_length_c   27.70314553
_cell_angle_alpha   90.00000000
_cell_angle_beta   90.00000000
_cell_angle_gamma   90.00000000
_symmetry_Int_Tables_number   71
_chemical_formula_structural   U(ReGe)6
_chemical_formula_sum   'U6 Re36 Ge36'
_cell_volume   1303.75478469
_cell_formula_units_Z   6
loop_
 _symmetry_equiv_pos_site_id
 _symmetry_equiv_pos_as_xyz
  1  'x, y, z'
  2  '-x, -y, -z'
  3  '-x, -y, z'
  4  'x, y, -z'
  5  'x, -y, -z'
  6  '-x, y, z'
  7  '-x, y, -z'
  8  'x, -y, z'
  9  'x+1/2, y+1/2, z+1/2'
  10  '-x+1/2, -y+1/2, -z+1/2'
  11  '-x+1/2, -y+1/2, z+1/2'
  12  'x+1/2, y+1/2, -z+1/2'
  13  'x+1/2, -y+1/2, -z+1/2'
  14  '-x+1/2, y+1/2, z+1/2'
  15  '-x+1/2, y+1/2, -z+1/2'
  16  'x+1/2, -y+1/2, z+1/2'
loop_
 _atom_site_type_symbol
 _atom_site_label
 _atom_site_symmetry_multiplicity
 _atom_site_fract_x
 _atom_site_fract_y
 _atom_site_fract_z
 _atom_site_occupancy
  U  U0  4  0.00000000  0.50000000  0.33280050  1
  U  U1  2  0.00000000  0.00000000  0.00000000  1
  Re  Re2  16  0.24957394  0.25028270  0.08322078  1
  Re  Re3  8  0.00000000  0.25006117  0.16674324  1
  Re  Re4  8  0.25000000  0.25000000  0.25000000  1
  Re  Re5  4  0.00000000  0.24905449  0.50000000  1
  Ge  Ge6  8  0.00000000  0.16710802  0.66607288  1
  Ge  Ge7  4  0.00000000  0.00000000  0.11143214  1
  Ge  Ge8  4  0.00000000  0.00000000  0.22120062  1
  Ge  Ge9  4  0.00000000  0.00000000  0.44399392  1
  Ge  Ge10  4  0.00000000  0.33289641  0.00000000  1
  Ge  Ge11  4  0.00000000  0.50000000  0.11087512  1
  Ge  Ge12  4  0.00000000  0.50000000  0.22294255  1
  Ge  Ge13  4  0.00000000  0.50000000  0.44426243  1
