# generated using pymatgen
data_U(SnRh)6
_symmetry_space_group_name_H-M   Cmcm
_cell_length_a   8.80637016
_cell_length_b   77.87404450
_cell_length_c   5.62245125
_cell_angle_alpha   90.00000000
_cell_angle_beta   90.00000000
_cell_angle_gamma   90.00000000
_symmetry_Int_Tables_number   63
_chemical_formula_structural   U(SnRh)6
_chemical_formula_sum   'U16 Sn96 Rh96'
_cell_volume   3855.80769411
_cell_formula_units_Z   16
loop_
 _symmetry_equiv_pos_site_id
 _symmetry_equiv_pos_as_xyz
  1  'x, y, z'
  2  '-x, -y, -z'
  3  '-x, -y, z+1/2'
  4  'x, y, -z+1/2'
  5  'x, -y, -z'
  6  '-x, y, z'
  7  '-x, y, -z+1/2'
  8  'x, -y, z+1/2'
  9  'x+1/2, y+1/2, z'
  10  '-x+1/2, -y+1/2, -z'
  11  '-x+1/2, -y+1/2, z+1/2'
  12  'x+1/2, y+1/2, -z+1/2'
  13  'x+1/2, -y+1/2, -z'
  14  '-x+1/2, y+1/2, z'
  15  '-x+1/2, y+1/2, -z+1/2'
  16  'x+1/2, -y+1/2, z+1/2'
loop_
 _atom_site_type_symbol
 _atom_site_label
 _atom_site_symmetry_multiplicity
 _atom_site_fract_x
 _atom_site_fract_y
 _atom_site_fract_z
 _atom_site_occupancy
  U  U0  4  0.00000000  0.03143810  0.25000000  1
  U  U1  4  0.00000000  0.28154602  0.25000000  1
  U  U2  4  0.00000000  0.34376183  0.75000000  1
  U  U3  4  0.00000000  0.40627353  0.25000000  1
  Sn  Sn4  8  0.16323684  0.21895249  0.75000000  1
  Sn  Sn5  8  0.16342410  0.09361790  0.75000000  1
  Sn  Sn6  8  0.16365817  0.84375352  0.75000000  1
  Sn  Sn7  8  0.16382097  0.46875520  0.75000000  1
  Sn  Sn8  4  0.00000000  0.01034511  0.75000000  1
  Sn  Sn9  4  0.00000000  0.05239461  0.75000000  1
  Sn  Sn10  4  0.00000000  0.07314209  0.25000000  1
  Sn  Sn11  4  0.00000000  0.11455302  0.25000000  1
  Sn  Sn12  4  0.00000000  0.13541294  0.75000000  1
  Sn  Sn13  4  0.00000000  0.17712104  0.75000000  1
  Sn  Sn14  4  0.00000000  0.19797309  0.25000000  1
  Sn  Sn15  4  0.00000000  0.23991065  0.25000000  1
  Sn  Sn16  4  0.00000000  0.26070763  0.75000000  1
  Sn  Sn17  4  0.00000000  0.30217602  0.75000000  1
  Sn  Sn18  4  0.00000000  0.32295551  0.25000000  1
  Sn  Sn19  4  0.00000000  0.36459178  0.25000000  1
  Sn  Sn20  4  0.00000000  0.38533617  0.75000000  1
  Sn  Sn21  4  0.00000000  0.42698171  0.75000000  1
  Sn  Sn22  4  0.00000000  0.44777570  0.25000000  1
  Sn  Sn23  4  0.00000000  0.48955954  0.25000000  1
  Rh  Rh24  16  0.24750200  0.06242539  0.00076040  1
  Rh  Rh25  16  0.24759480  0.12499023  0.50007337  1
  Rh  Rh26  16  0.24759769  0.18753649  0.50013757  1
  Rh  Rh27  8  0.24458068  0.03128473  0.75000000  1
  Rh  Rh28  8  0.24740416  0.00000000  0.00000000  1
  Rh  Rh29  8  0.24757167  0.21878392  0.25000000  1
  Rh  Rh30  8  0.24761676  0.15625493  0.75000000  1
  Rh  Rh31  8  0.24972509  0.40625006  0.75000000  1
  Rh  Rh32  8  0.25000000  0.25000000  0.00000000  1
