# generated using pymatgen
data_U(SnMo)6
_symmetry_space_group_name_H-M   Cmmm
_cell_length_a   5.58769380
_cell_length_b   48.48175915
_cell_length_c   9.56454337
_cell_angle_alpha   90.00000000
_cell_angle_beta   90.00000000
_cell_angle_gamma   90.00000000
_symmetry_Int_Tables_number   65
_chemical_formula_structural   U(SnMo)6
_chemical_formula_sum   'U10 Sn60 Mo60'
_cell_volume   2591.04651452
_cell_formula_units_Z   10
loop_
 _symmetry_equiv_pos_site_id
 _symmetry_equiv_pos_as_xyz
  1  'x, y, z'
  2  '-x, -y, -z'
  3  '-x, -y, z'
  4  'x, y, -z'
  5  'x, -y, -z'
  6  '-x, y, z'
  7  '-x, y, -z'
  8  'x, -y, z'
  9  'x+1/2, y+1/2, z'
  10  '-x+1/2, -y+1/2, -z'
  11  '-x+1/2, -y+1/2, z'
  12  'x+1/2, y+1/2, -z'
  13  'x+1/2, -y+1/2, -z'
  14  '-x+1/2, y+1/2, z'
  15  '-x+1/2, y+1/2, -z'
  16  'x+1/2, -y+1/2, z'
loop_
 _atom_site_type_symbol
 _atom_site_label
 _atom_site_symmetry_multiplicity
 _atom_site_fract_x
 _atom_site_fract_y
 _atom_site_fract_z
 _atom_site_occupancy
  U  U0  4  0.00000000  0.20009215  0.50000000  1
  U  U1  4  0.00000000  0.40011244  0.00000000  1
  U  U2  2  0.00000000  0.00000000  0.00000000  1
  Sn  Sn3  8  0.00000000  0.20003287  0.17629341  1
  Sn  Sn4  8  0.00000000  0.40003027  0.32368190  1
  Sn  Sn5  4  0.00000000  0.00000000  0.32334632  1
  Sn  Sn6  4  0.00000000  0.06663531  0.00000000  1
  Sn  Sn7  4  0.00000000  0.06682500  0.50000000  1
  Sn  Sn8  4  0.00000000  0.13272923  0.00000000  1
  Sn  Sn9  4  0.00000000  0.13385476  0.50000000  1
  Sn  Sn10  4  0.00000000  0.26668262  0.50000000  1
  Sn  Sn11  4  0.00000000  0.26680449  0.00000000  1
  Sn  Sn12  4  0.00000000  0.33273206  0.50000000  1
  Sn  Sn13  4  0.00000000  0.33386009  0.00000000  1
  Sn  Sn14  4  0.00000000  0.46671790  0.00000000  1
  Sn  Sn15  4  0.00000000  0.46677227  0.50000000  1
  Mo  Mo16  16  0.24994198  0.45000894  0.24975411  1
  Mo  Mo17  16  0.24998770  0.14999926  0.24999951  1
  Mo  Mo18  8  0.00000000  0.09997937  0.24868342  1
  Mo  Mo19  8  0.00000000  0.29998617  0.25127464  1
  Mo  Mo20  8  0.25000000  0.25000000  0.25033765  1
  Mo  Mo21  4  0.00000000  0.50000000  0.24958819  1
