# generated using pymatgen
data_U(TiSi)6
_symmetry_space_group_name_H-M   Cmcm
_cell_length_a   8.64039477
_cell_length_b   37.54527838
_cell_length_c   5.41782130
_cell_angle_alpha   90.00000000
_cell_angle_beta   90.00000000
_cell_angle_gamma   90.00000000
_symmetry_Int_Tables_number   63
_chemical_formula_structural   U(TiSi)6
_chemical_formula_sum   'U8 Ti48 Si48'
_cell_volume   1757.57388452
_cell_formula_units_Z   8
loop_
 _symmetry_equiv_pos_site_id
 _symmetry_equiv_pos_as_xyz
  1  'x, y, z'
  2  '-x, -y, -z'
  3  '-x, -y, z+1/2'
  4  'x, y, -z+1/2'
  5  'x, -y, -z'
  6  '-x, y, z'
  7  '-x, y, -z+1/2'
  8  'x, -y, z+1/2'
  9  'x+1/2, y+1/2, z'
  10  '-x+1/2, -y+1/2, -z'
  11  '-x+1/2, -y+1/2, z+1/2'
  12  'x+1/2, y+1/2, -z+1/2'
  13  'x+1/2, -y+1/2, -z'
  14  '-x+1/2, y+1/2, z'
  15  '-x+1/2, y+1/2, -z+1/2'
  16  'x+1/2, -y+1/2, z+1/2'
loop_
 _atom_site_type_symbol
 _atom_site_label
 _atom_site_symmetry_multiplicity
 _atom_site_fract_x
 _atom_site_fract_y
 _atom_site_fract_z
 _atom_site_occupancy
  U  U0  4  0.00000000  0.31240142  0.25000000  1
  U  U1  4  0.00000000  0.43644958  0.75000000  1
  Ti  Ti2  16  0.24315566  0.87513241  0.00007016  1
  Ti  Ti3  8  0.24325791  0.81263112  0.75000000  1
  Ti  Ti4  8  0.24749659  0.00000000  0.00000000  1
  Ti  Ti5  8  0.24799511  0.06234286  0.75000000  1
  Ti  Ti6  8  0.25000000  0.25000000  0.00000000  1
  Si  Si7  8  0.17289316  0.18741994  0.75000000  1
  Si  Si8  8  0.17377072  0.93781989  0.75000000  1
  Si  Si9  4  0.00000000  0.02177666  0.75000000  1
  Si  Si10  4  0.00000000  0.10181671  0.75000000  1
  Si  Si11  4  0.00000000  0.14704175  0.25000000  1
  Si  Si12  4  0.00000000  0.23052487  0.25000000  1
  Si  Si13  4  0.00000000  0.27504721  0.75000000  1
  Si  Si14  4  0.00000000  0.35270846  0.75000000  1
  Si  Si15  4  0.00000000  0.39563463  0.25000000  1
  Si  Si16  4  0.00000000  0.47830177  0.25000000  1
