# generated using pymatgen
data_Hf6USn6
_symmetry_space_group_name_H-M   Cmcm
_cell_length_a   9.88306064
_cell_length_b   83.76545181
_cell_length_c   6.04306881
_cell_angle_alpha   90.00000000
_cell_angle_beta   90.00000000
_cell_angle_gamma   90.00000000
_symmetry_Int_Tables_number   63
_chemical_formula_structural   Hf6USn6
_chemical_formula_sum   'Hf96 U16 Sn96'
_cell_volume   5002.80913905
_cell_formula_units_Z   16
loop_
 _symmetry_equiv_pos_site_id
 _symmetry_equiv_pos_as_xyz
  1  'x, y, z'
  2  '-x, -y, -z'
  3  '-x, -y, z+1/2'
  4  'x, y, -z+1/2'
  5  'x, -y, -z'
  6  '-x, y, z'
  7  '-x, y, -z+1/2'
  8  'x, -y, z+1/2'
  9  'x+1/2, y+1/2, z'
  10  '-x+1/2, -y+1/2, -z'
  11  '-x+1/2, -y+1/2, z+1/2'
  12  'x+1/2, y+1/2, -z+1/2'
  13  'x+1/2, -y+1/2, -z'
  14  '-x+1/2, y+1/2, z'
  15  '-x+1/2, y+1/2, -z+1/2'
  16  'x+1/2, -y+1/2, z+1/2'
loop_
 _atom_site_type_symbol
 _atom_site_label
 _atom_site_symmetry_multiplicity
 _atom_site_fract_x
 _atom_site_fract_y
 _atom_site_fract_z
 _atom_site_occupancy
  Hf  Hf0  16  0.24802500  0.37499764  0.50019321  1
  Hf  Hf1  16  0.24809766  0.31247974  0.50027543  1
  Hf  Hf2  16  0.24909483  0.93750828  0.00006916  1
  Hf  Hf3  8  0.24686756  0.00000000  0.00000000  1
  Hf  Hf4  8  0.24760744  0.78127220  0.25000000  1
  Hf  Hf5  8  0.24803634  0.34374764  0.75000000  1
  Hf  Hf6  8  0.24890210  0.96881395  0.75000000  1
  Hf  Hf7  8  0.24924995  0.90619015  0.25000000  1
  Hf  Hf8  8  0.25000000  0.25000000  0.00000000  1
  U  U9  4  0.00000000  0.03124556  0.75000000  1
  U  U10  4  0.00000000  0.28152534  0.75000000  1
  U  U11  4  0.00000000  0.34376287  0.25000000  1
  U  U12  4  0.00000000  0.40613467  0.75000000  1
  Sn  Sn13  8  0.18464744  0.09369320  0.25000000  1
  Sn  Sn14  8  0.18473200  0.15624339  0.75000000  1
  Sn  Sn15  8  0.18479842  0.78109040  0.75000000  1
  Sn  Sn16  8  0.18570773  0.46864750  0.25000000  1
  Sn  Sn17  4  0.00000000  0.01039565  0.25000000  1
  Sn  Sn18  4  0.00000000  0.05098225  0.25000000  1
  Sn  Sn19  4  0.00000000  0.07163803  0.75000000  1
  Sn  Sn20  4  0.00000000  0.11464153  0.75000000  1
  Sn  Sn21  4  0.00000000  0.13543177  0.25000000  1
  Sn  Sn22  4  0.00000000  0.17706285  0.25000000  1
  Sn  Sn23  4  0.00000000  0.19785462  0.75000000  1
  Sn  Sn24  4  0.00000000  0.24139670  0.75000000  1
  Sn  Sn25  4  0.00000000  0.26197023  0.25000000  1
  Sn  Sn26  4  0.00000000  0.30209472  0.25000000  1
  Sn  Sn27  4  0.00000000  0.32295183  0.75000000  1
  Sn  Sn28  4  0.00000000  0.36457239  0.75000000  1
  Sn  Sn29  4  0.00000000  0.38540888  0.25000000  1
  Sn  Sn30  4  0.00000000  0.42584004  0.25000000  1
  Sn  Sn31  4  0.00000000  0.44637720  0.75000000  1
  Sn  Sn32  4  0.00000000  0.48955118  0.75000000  1
