# generated using pymatgen
data_U(NbSi)6
_symmetry_space_group_name_H-M   Immm
_cell_length_a   5.62428370
_cell_length_b   8.54476182
_cell_length_c   28.76974114
_cell_angle_alpha   90.00000000
_cell_angle_beta   90.00000000
_cell_angle_gamma   90.00000000
_symmetry_Int_Tables_number   71
_chemical_formula_structural   U(NbSi)6
_chemical_formula_sum   'U6 Nb36 Si36'
_cell_volume   1382.62095658
_cell_formula_units_Z   6
loop_
 _symmetry_equiv_pos_site_id
 _symmetry_equiv_pos_as_xyz
  1  'x, y, z'
  2  '-x, -y, -z'
  3  '-x, -y, z'
  4  'x, y, -z'
  5  'x, -y, -z'
  6  '-x, y, z'
  7  '-x, y, -z'
  8  'x, -y, z'
  9  'x+1/2, y+1/2, z+1/2'
  10  '-x+1/2, -y+1/2, -z+1/2'
  11  '-x+1/2, -y+1/2, z+1/2'
  12  'x+1/2, y+1/2, -z+1/2'
  13  'x+1/2, -y+1/2, -z+1/2'
  14  '-x+1/2, y+1/2, z+1/2'
  15  '-x+1/2, y+1/2, -z+1/2'
  16  'x+1/2, -y+1/2, z+1/2'
loop_
 _atom_site_type_symbol
 _atom_site_label
 _atom_site_symmetry_multiplicity
 _atom_site_fract_x
 _atom_site_fract_y
 _atom_site_fract_z
 _atom_site_occupancy
  U  U0  4  0.00000000  0.00000000  0.33519599  1
  U  U1  2  0.00000000  0.50000000  0.00000000  1
  Nb  Nb2  16  0.24973910  0.25972490  0.08320363  1
  Nb  Nb3  8  0.00000000  0.22760120  0.16624457  1
  Nb  Nb4  8  0.25000000  0.25000000  0.25000000  1
  Nb  Nb5  4  0.00000000  0.26104369  0.50000000  1
  Si  Si6  8  0.00000000  0.33870397  0.33405558  1
  Si  Si7  4  0.00000000  0.00000000  0.10221632  1
  Si  Si8  4  0.00000000  0.00000000  0.22943039  1
  Si  Si9  4  0.00000000  0.00000000  0.44923703  1
  Si  Si10  4  0.00000000  0.16158523  0.00000000  1
  Si  Si11  4  0.00000000  0.50000000  0.11748249  1
  Si  Si12  4  0.00000000  0.50000000  0.21412337  1
  Si  Si13  4  0.00000000  0.50000000  0.43884495  1
