# generated using pymatgen
data_U(SiHg)6
_symmetry_space_group_name_H-M   Cmcm
_cell_length_a   7.91218472
_cell_length_b   44.01010627
_cell_length_c   6.20657114
_cell_angle_alpha   90.00000000
_cell_angle_beta   90.00000000
_cell_angle_gamma   90.00000000
_symmetry_Int_Tables_number   63
_chemical_formula_structural   U(SiHg)6
_chemical_formula_sum   'U8 Si48 Hg48'
_cell_volume   2161.22793798
_cell_formula_units_Z   8
loop_
 _symmetry_equiv_pos_site_id
 _symmetry_equiv_pos_as_xyz
  1  'x, y, z'
  2  '-x, -y, -z'
  3  '-x, -y, z+1/2'
  4  'x, y, -z+1/2'
  5  'x, -y, -z'
  6  '-x, y, z'
  7  '-x, y, -z+1/2'
  8  'x, -y, z+1/2'
  9  'x+1/2, y+1/2, z'
  10  '-x+1/2, -y+1/2, -z'
  11  '-x+1/2, -y+1/2, z+1/2'
  12  'x+1/2, y+1/2, -z+1/2'
  13  'x+1/2, -y+1/2, -z'
  14  '-x+1/2, y+1/2, z'
  15  '-x+1/2, y+1/2, -z+1/2'
  16  'x+1/2, -y+1/2, z+1/2'
loop_
 _atom_site_type_symbol
 _atom_site_label
 _atom_site_symmetry_multiplicity
 _atom_site_fract_x
 _atom_site_fract_y
 _atom_site_fract_z
 _atom_site_occupancy
  U  U0  4  0.00000000  0.06466257  0.25000000  1
  U  U1  4  0.00000000  0.18767329  0.75000000  1
  Si  Si2  8  0.14904635  0.44250867  0.75000000  1
  Si  Si3  8  0.14905924  0.31265913  0.25000000  1
  Si  Si4  4  0.00000000  0.02446891  0.75000000  1
  Si  Si5  4  0.00000000  0.10458361  0.75000000  1
  Si  Si6  4  0.00000000  0.14623745  0.25000000  1
  Si  Si7  4  0.00000000  0.22295182  0.25000000  1
  Si  Si8  4  0.00000000  0.26173428  0.75000000  1
  Si  Si9  4  0.00000000  0.35319474  0.75000000  1
  Si  Si10  4  0.00000000  0.39677794  0.25000000  1
  Si  Si11  4  0.00000000  0.48161641  0.25000000  1
  Hg  Hg12  16  0.24993892  0.37455745  0.00007294  1
  Hg  Hg13  8  0.23683349  0.00000000  0.00000000  1
  Hg  Hg14  8  0.24577114  0.31332210  0.75000000  1
  Hg  Hg15  8  0.24932206  0.06367205  0.75000000  1
  Hg  Hg16  8  0.25000000  0.25000000  0.00000000  1
