# generated using pymatgen
data_U(CrSi)6
_symmetry_space_group_name_H-M   Immm
_cell_length_a   4.84703281
_cell_length_b   8.23011713
_cell_length_c   26.18089387
_cell_angle_alpha   90.00000000
_cell_angle_beta   90.00000000
_cell_angle_gamma   90.00000000
_symmetry_Int_Tables_number   71
_chemical_formula_structural   U(CrSi)6
_chemical_formula_sum   'U6 Cr36 Si36'
_cell_volume   1044.39899493
_cell_formula_units_Z   6
loop_
 _symmetry_equiv_pos_site_id
 _symmetry_equiv_pos_as_xyz
  1  'x, y, z'
  2  '-x, -y, -z'
  3  '-x, -y, z'
  4  'x, y, -z'
  5  'x, -y, -z'
  6  '-x, y, z'
  7  '-x, y, -z'
  8  'x, -y, z'
  9  'x+1/2, y+1/2, z+1/2'
  10  '-x+1/2, -y+1/2, -z+1/2'
  11  '-x+1/2, -y+1/2, z+1/2'
  12  'x+1/2, y+1/2, -z+1/2'
  13  'x+1/2, -y+1/2, -z+1/2'
  14  '-x+1/2, y+1/2, z+1/2'
  15  '-x+1/2, y+1/2, -z+1/2'
  16  'x+1/2, -y+1/2, z+1/2'
loop_
 _atom_site_type_symbol
 _atom_site_label
 _atom_site_symmetry_multiplicity
 _atom_site_fract_x
 _atom_site_fract_y
 _atom_site_fract_z
 _atom_site_occupancy
  U  U0  4  0.00000000  0.50000000  0.17418711  1
  U  U1  2  0.00000000  0.00000000  0.50000000  1
  Cr  Cr2  16  0.24445920  0.25135161  0.41788423  1
  Cr  Cr3  8  0.00000000  0.23426167  0.66873056  1
  Cr  Cr4  8  0.25000000  0.25000000  0.25000000  1
  Cr  Cr5  4  0.00000000  0.25727795  0.00000000  1
  Si  Si6  8  0.00000000  0.14507109  0.16504866  1
  Si  Si7  4  0.00000000  0.00000000  0.05637175  1
  Si  Si8  4  0.00000000  0.00000000  0.26502858  1
  Si  Si9  4  0.00000000  0.00000000  0.38991520  1
  Si  Si10  4  0.00000000  0.35350258  0.50000000  1
  Si  Si11  4  0.00000000  0.50000000  0.06071222  1
  Si  Si12  4  0.00000000  0.50000000  0.28662808  1
  Si  Si13  4  0.00000000  0.50000000  0.38463214  1
