# generated using pymatgen
data_U(TcPb)6
_symmetry_space_group_name_H-M   Cmcm
_cell_length_a   10.55474956
_cell_length_b   38.30740995
_cell_length_c   5.66862122
_cell_angle_alpha   90.00000000
_cell_angle_beta   90.00000000
_cell_angle_gamma   90.00000000
_symmetry_Int_Tables_number   63
_chemical_formula_structural   U(TcPb)6
_chemical_formula_sum   'U8 Tc48 Pb48'
_cell_volume   2291.96594609
_cell_formula_units_Z   8
loop_
 _symmetry_equiv_pos_site_id
 _symmetry_equiv_pos_as_xyz
  1  'x, y, z'
  2  '-x, -y, -z'
  3  '-x, -y, z+1/2'
  4  'x, y, -z+1/2'
  5  'x, -y, -z'
  6  '-x, y, z'
  7  '-x, y, -z+1/2'
  8  'x, -y, z+1/2'
  9  'x+1/2, y+1/2, z'
  10  '-x+1/2, -y+1/2, -z'
  11  '-x+1/2, -y+1/2, z+1/2'
  12  'x+1/2, y+1/2, -z+1/2'
  13  'x+1/2, -y+1/2, -z'
  14  '-x+1/2, y+1/2, z'
  15  '-x+1/2, y+1/2, -z+1/2'
  16  'x+1/2, -y+1/2, z+1/2'
loop_
 _atom_site_type_symbol
 _atom_site_label
 _atom_site_symmetry_multiplicity
 _atom_site_fract_x
 _atom_site_fract_y
 _atom_site_fract_z
 _atom_site_occupancy
  U  U0  4  0.00000000  0.06706131  0.25000000  1
  U  U1  4  0.00000000  0.19301651  0.75000000  1
  Tc  Tc2  16  0.22943738  0.87540976  0.54185818  1
  Tc  Tc3  8  0.23375573  0.19792854  0.25000000  1
  Tc  Tc4  8  0.23522948  0.00000000  0.00000000  1
  Tc  Tc5  8  0.24021384  0.05253880  0.75000000  1
  Tc  Tc6  8  0.25000000  0.25000000  0.00000000  1
  Pb  Pb7  8  0.17354925  0.43761205  0.75000000  1
  Pb  Pb8  8  0.18518515  0.31762440  0.25000000  1
  Pb  Pb9  4  0.00000000  0.02005688  0.75000000  1
  Pb  Pb10  4  0.00000000  0.10665849  0.75000000  1
  Pb  Pb11  4  0.00000000  0.15183886  0.25000000  1
  Pb  Pb12  4  0.00000000  0.23752256  0.25000000  1
  Pb  Pb13  4  0.00000000  0.27664976  0.75000000  1
  Pb  Pb14  4  0.00000000  0.35863629  0.75000000  1
  Pb  Pb15  4  0.00000000  0.39659697  0.25000000  1
  Pb  Pb16  4  0.00000000  0.47898188  0.25000000  1
