# generated using pymatgen
data_U(MnPb)6
_symmetry_space_group_name_H-M   Cmcm
_cell_length_a   9.94216526
_cell_length_b   79.40175967
_cell_length_c   5.72965758
_cell_angle_alpha   90.00000000
_cell_angle_beta   90.00000000
_cell_angle_gamma   90.00000000
_symmetry_Int_Tables_number   63
_chemical_formula_structural   U(MnPb)6
_chemical_formula_sum   'U16 Mn96 Pb96'
_cell_volume   4523.13732215
_cell_formula_units_Z   16
loop_
 _symmetry_equiv_pos_site_id
 _symmetry_equiv_pos_as_xyz
  1  'x, y, z'
  2  '-x, -y, -z'
  3  '-x, -y, z+1/2'
  4  'x, y, -z+1/2'
  5  'x, -y, -z'
  6  '-x, y, z'
  7  '-x, y, -z+1/2'
  8  'x, -y, z+1/2'
  9  'x+1/2, y+1/2, z'
  10  '-x+1/2, -y+1/2, -z'
  11  '-x+1/2, -y+1/2, z+1/2'
  12  'x+1/2, y+1/2, -z+1/2'
  13  'x+1/2, -y+1/2, -z'
  14  '-x+1/2, y+1/2, z'
  15  '-x+1/2, y+1/2, -z+1/2'
  16  'x+1/2, -y+1/2, z+1/2'
loop_
 _atom_site_type_symbol
 _atom_site_label
 _atom_site_symmetry_multiplicity
 _atom_site_fract_x
 _atom_site_fract_y
 _atom_site_fract_z
 _atom_site_occupancy
  U  U0  4  0.00000000  0.09355052  0.75000000  1
  U  U1  4  0.00000000  0.15621342  0.25000000  1
  U  U2  4  0.00000000  0.21887246  0.75000000  1
  U  U3  4  0.00000000  0.46842298  0.75000000  1
  Mn  Mn4  16  0.24801967  0.43775074  0.50206885  1
  Mn  Mn5  16  0.24832500  0.12498880  0.50017457  1
  Mn  Mn6  16  0.24852490  0.18753461  0.50022273  1
  Mn  Mn7  8  0.24350929  0.53126968  0.75000000  1
  Mn  Mn8  8  0.24488945  0.50000000  0.00000000  1
  Mn  Mn9  8  0.24727925  0.90619786  0.75000000  1
  Mn  Mn10  8  0.24803045  0.78122328  0.75000000  1
  Mn  Mn11  8  0.24830781  0.15622840  0.75000000  1
  Mn  Mn12  8  0.25000000  0.25000000  0.00000000  1
  Pb  Pb13  8  0.17682572  0.28115324  0.25000000  1
  Pb  Pb14  8  0.17686676  0.34373922  0.75000000  1
  Pb  Pb15  8  0.17725707  0.03112311  0.25000000  1
  Pb  Pb16  8  0.17737653  0.40632028  0.25000000  1
  Pb  Pb17  4  0.00000000  0.01043985  0.75000000  1
  Pb  Pb18  4  0.00000000  0.05202352  0.75000000  1
  Pb  Pb19  4  0.00000000  0.07276125  0.25000000  1
  Pb  Pb20  4  0.00000000  0.11457344  0.25000000  1
  Pb  Pb21  4  0.00000000  0.13538502  0.75000000  1
  Pb  Pb22  4  0.00000000  0.17708548  0.75000000  1
  Pb  Pb23  4  0.00000000  0.19783991  0.25000000  1
  Pb  Pb24  4  0.00000000  0.23947656  0.25000000  1
  Pb  Pb25  4  0.00000000  0.26026622  0.75000000  1
  Pb  Pb26  4  0.00000000  0.30201844  0.75000000  1
  Pb  Pb27  4  0.00000000  0.32289249  0.25000000  1
  Pb  Pb28  4  0.00000000  0.36458565  0.25000000  1
  Pb  Pb29  4  0.00000000  0.38537100  0.75000000  1
  Pb  Pb30  4  0.00000000  0.42684459  0.75000000  1
  Pb  Pb31  4  0.00000000  0.44764862  0.25000000  1
  Pb  Pb32  4  0.00000000  0.48961609  0.25000000  1
