# generated using pymatgen
data_Zr6UGe6
_symmetry_space_group_name_H-M   Cmcm
_cell_length_a   8.89803875
_cell_length_b   82.44558998
_cell_length_c   5.96153170
_cell_angle_alpha   90.00000000
_cell_angle_beta   90.00000000
_cell_angle_gamma   90.00000000
_symmetry_Int_Tables_number   63
_chemical_formula_structural   Zr6UGe6
_chemical_formula_sum   'Zr96 U16 Ge96'
_cell_volume   4373.40382517
_cell_formula_units_Z   16
loop_
 _symmetry_equiv_pos_site_id
 _symmetry_equiv_pos_as_xyz
  1  'x, y, z'
  2  '-x, -y, -z'
  3  '-x, -y, z+1/2'
  4  'x, y, -z+1/2'
  5  'x, -y, -z'
  6  '-x, y, z'
  7  '-x, y, -z+1/2'
  8  'x, -y, z+1/2'
  9  'x+1/2, y+1/2, z'
  10  '-x+1/2, -y+1/2, -z'
  11  '-x+1/2, -y+1/2, z+1/2'
  12  'x+1/2, y+1/2, -z+1/2'
  13  'x+1/2, -y+1/2, -z'
  14  '-x+1/2, y+1/2, z'
  15  '-x+1/2, y+1/2, -z+1/2'
  16  'x+1/2, -y+1/2, z+1/2'
loop_
 _atom_site_type_symbol
 _atom_site_label
 _atom_site_symmetry_multiplicity
 _atom_site_fract_x
 _atom_site_fract_y
 _atom_site_fract_z
 _atom_site_occupancy
  Zr  Zr0  16  0.24748000  0.43751640  0.00023318  1
  Zr  Zr1  16  0.24813109  0.31242738  0.00013707  1
  Zr  Zr2  16  0.24823513  0.37504035  0.00012980  1
  Zr  Zr3  8  0.24072506  0.28115453  0.75000000  1
  Zr  Zr4  8  0.24394884  0.40628662  0.75000000  1
  Zr  Zr5  8  0.24704662  0.50000000  0.00000000  1
  Zr  Zr6  8  0.24791267  0.34374607  0.25000000  1
  Zr  Zr7  8  0.24849714  0.03121871  0.75000000  1
  Zr  Zr8  8  0.25000000  0.25000000  0.00000000  1
  U  U9  4  0.00000000  0.09340253  0.75000000  1
  U  U10  4  0.00000000  0.15620942  0.25000000  1
  U  U11  4  0.00000000  0.21881240  0.75000000  1
  U  U12  4  0.00000000  0.46854034  0.75000000  1
  Ge  Ge13  8  0.17158612  0.34375338  0.75000000  1
  Ge  Ge14  8  0.17196145  0.40624824  0.25000000  1
  Ge  Ge15  8  0.17209949  0.28114746  0.25000000  1
  Ge  Ge16  8  0.17292353  0.03126548  0.25000000  1
  Ge  Ge17  4  0.00000000  0.01013833  0.75000000  1
  Ge  Ge18  4  0.00000000  0.05337531  0.75000000  1
  Ge  Ge19  4  0.00000000  0.07398638  0.25000000  1
  Ge  Ge20  4  0.00000000  0.11448311  0.25000000  1
  Ge  Ge21  4  0.00000000  0.13543588  0.75000000  1
  Ge  Ge22  4  0.00000000  0.17707272  0.75000000  1
  Ge  Ge23  4  0.00000000  0.19807160  0.25000000  1
  Ge  Ge24  4  0.00000000  0.23791203  0.25000000  1
  Ge  Ge25  4  0.00000000  0.25850126  0.75000000  1
  Ge  Ge26  4  0.00000000  0.30242297  0.75000000  1
  Ge  Ge27  4  0.00000000  0.32289390  0.25000000  1
  Ge  Ge28  4  0.00000000  0.36461142  0.25000000  1
  Ge  Ge29  4  0.00000000  0.38520471  0.75000000  1
  Ge  Ge30  4  0.00000000  0.42824877  0.75000000  1
  Ge  Ge31  4  0.00000000  0.44901170  0.25000000  1
  Ge  Ge32  4  0.00000000  0.48951557  0.25000000  1
