# generated using pymatgen
data_U(RhPb)6
_symmetry_space_group_name_H-M   Cmcm
_cell_length_a   9.37517302
_cell_length_b   79.19715334
_cell_length_c   5.70561092
_cell_angle_alpha   90.00000000
_cell_angle_beta   90.00000000
_cell_angle_gamma   90.00000000
_symmetry_Int_Tables_number   63
_chemical_formula_structural   U(RhPb)6
_chemical_formula_sum   'U16 Rh96 Pb96'
_cell_volume   4236.34202446
_cell_formula_units_Z   16
loop_
 _symmetry_equiv_pos_site_id
 _symmetry_equiv_pos_as_xyz
  1  'x, y, z'
  2  '-x, -y, -z'
  3  '-x, -y, z+1/2'
  4  'x, y, -z+1/2'
  5  'x, -y, -z'
  6  '-x, y, z'
  7  '-x, y, -z+1/2'
  8  'x, -y, z+1/2'
  9  'x+1/2, y+1/2, z'
  10  '-x+1/2, -y+1/2, -z'
  11  '-x+1/2, -y+1/2, z+1/2'
  12  'x+1/2, y+1/2, -z+1/2'
  13  'x+1/2, -y+1/2, -z'
  14  '-x+1/2, y+1/2, z'
  15  '-x+1/2, y+1/2, -z+1/2'
  16  'x+1/2, -y+1/2, z+1/2'
loop_
 _atom_site_type_symbol
 _atom_site_label
 _atom_site_symmetry_multiplicity
 _atom_site_fract_x
 _atom_site_fract_y
 _atom_site_fract_z
 _atom_site_occupancy
  U  U0  4  0.00000000  0.03141234  0.25000000  1
  U  U1  4  0.00000000  0.28130734  0.25000000  1
  U  U2  4  0.00000000  0.34379128  0.75000000  1
  U  U3  4  0.00000000  0.40621656  0.25000000  1
  Rh  Rh4  16  0.24598896  0.06230255  0.00118606  1
  Rh  Rh5  16  0.24637243  0.37499582  0.00004829  1
  Rh  Rh6  16  0.24663044  0.31247932  0.00006122  1
  Rh  Rh7  8  0.23828712  0.03125399  0.75000000  1
  Rh  Rh8  8  0.23978767  0.00000000  0.00000000  1
  Rh  Rh9  8  0.24504622  0.40630295  0.75000000  1
  Rh  Rh10  8  0.24631571  0.28124539  0.75000000  1
  Rh  Rh11  8  0.24646780  0.34373743  0.25000000  1
  Rh  Rh12  8  0.25000000  0.25000000  0.00000000  1
  Pb  Pb13  8  0.17321146  0.15626009  0.25000000  1
  Pb  Pb14  8  0.17337441  0.21875436  0.75000000  1
  Pb  Pb15  8  0.17355937  0.09384747  0.75000000  1
  Pb  Pb16  8  0.17399791  0.46887832  0.75000000  1
  Pb  Pb17  4  0.00000000  0.01045589  0.75000000  1
  Pb  Pb18  4  0.00000000  0.05244954  0.75000000  1
  Pb  Pb19  4  0.00000000  0.07320654  0.25000000  1
  Pb  Pb20  4  0.00000000  0.11464540  0.25000000  1
  Pb  Pb21  4  0.00000000  0.13543337  0.75000000  1
  Pb  Pb22  4  0.00000000  0.17710683  0.75000000  1
  Pb  Pb23  4  0.00000000  0.19795611  0.25000000  1
  Pb  Pb24  4  0.00000000  0.23973759  0.25000000  1
  Pb  Pb25  4  0.00000000  0.26056202  0.75000000  1
  Pb  Pb26  4  0.00000000  0.30211261  0.75000000  1
  Pb  Pb27  4  0.00000000  0.32292011  0.25000000  1
  Pb  Pb28  4  0.00000000  0.36457393  0.25000000  1
  Pb  Pb29  4  0.00000000  0.38547391  0.75000000  1
  Pb  Pb30  4  0.00000000  0.42727042  0.75000000  1
  Pb  Pb31  4  0.00000000  0.44799645  0.25000000  1
  Pb  Pb32  4  0.00000000  0.48966681  0.25000000  1
