# generated using pymatgen
data_U(GeMo)6
_symmetry_space_group_name_H-M   Cmcm
_cell_length_a   8.74168999
_cell_length_b   37.34863536
_cell_length_c   5.38332638
_cell_angle_alpha   90.00000000
_cell_angle_beta   90.00000000
_cell_angle_gamma   90.00000000
_symmetry_Int_Tables_number   63
_chemical_formula_structural   U(GeMo)6
_chemical_formula_sum   'U8 Ge48 Mo48'
_cell_volume   1757.60326280
_cell_formula_units_Z   8
loop_
 _symmetry_equiv_pos_site_id
 _symmetry_equiv_pos_as_xyz
  1  'x, y, z'
  2  '-x, -y, -z'
  3  '-x, -y, z+1/2'
  4  'x, y, -z+1/2'
  5  'x, -y, -z'
  6  '-x, y, z'
  7  '-x, y, -z+1/2'
  8  'x, -y, z+1/2'
  9  'x+1/2, y+1/2, z'
  10  '-x+1/2, -y+1/2, -z'
  11  '-x+1/2, -y+1/2, z+1/2'
  12  'x+1/2, y+1/2, -z+1/2'
  13  'x+1/2, -y+1/2, -z'
  14  '-x+1/2, y+1/2, z'
  15  '-x+1/2, y+1/2, -z+1/2'
  16  'x+1/2, -y+1/2, z+1/2'
loop_
 _atom_site_type_symbol
 _atom_site_label
 _atom_site_symmetry_multiplicity
 _atom_site_fract_x
 _atom_site_fract_y
 _atom_site_fract_z
 _atom_site_occupancy
  U  U0  4  0.00000000  0.06305268  0.25000000  1
  U  U1  4  0.00000000  0.18853231  0.75000000  1
  Ge  Ge2  8  0.16131108  0.31270656  0.25000000  1
  Ge  Ge3  8  0.16449005  0.43890534  0.75000000  1
  Ge  Ge4  4  0.00000000  0.02102242  0.75000000  1
  Ge  Ge5  4  0.00000000  0.10529179  0.75000000  1
  Ge  Ge6  4  0.00000000  0.14608449  0.25000000  1
  Ge  Ge7  4  0.00000000  0.22847164  0.25000000  1
  Ge  Ge8  4  0.00000000  0.27111812  0.75000000  1
  Ge  Ge9  4  0.00000000  0.35389024  0.75000000  1
  Ge  Ge10  4  0.00000000  0.39772760  0.25000000  1
  Ge  Ge11  4  0.00000000  0.47707520  0.25000000  1
  Mo  Mo12  16  0.24820789  0.37503361  0.50061641  1
  Mo  Mo13  8  0.24862259  0.06271750  0.75000000  1
  Mo  Mo14  8  0.24914437  0.18748332  0.25000000  1
  Mo  Mo15  8  0.24998589  0.50000000  0.00000000  1
  Mo  Mo16  8  0.25000000  0.25000000  0.00000000  1
