# generated using pymatgen
data_U(TiGe)6
_symmetry_space_group_name_H-M   Cmcm
_cell_length_a   8.99318595
_cell_length_b   38.36102748
_cell_length_c   5.53490761
_cell_angle_alpha   90.00000000
_cell_angle_beta   90.00000000
_cell_angle_gamma   90.00000000
_symmetry_Int_Tables_number   63
_chemical_formula_structural   U(TiGe)6
_chemical_formula_sum   'U8 Ti48 Ge48'
_cell_volume   1909.47589458
_cell_formula_units_Z   8
loop_
 _symmetry_equiv_pos_site_id
 _symmetry_equiv_pos_as_xyz
  1  'x, y, z'
  2  '-x, -y, -z'
  3  '-x, -y, z+1/2'
  4  'x, y, -z+1/2'
  5  'x, -y, -z'
  6  '-x, y, z'
  7  '-x, y, -z+1/2'
  8  'x, -y, z+1/2'
  9  'x+1/2, y+1/2, z'
  10  '-x+1/2, -y+1/2, -z'
  11  '-x+1/2, -y+1/2, z+1/2'
  12  'x+1/2, y+1/2, -z+1/2'
  13  'x+1/2, -y+1/2, -z'
  14  '-x+1/2, y+1/2, z'
  15  '-x+1/2, y+1/2, -z+1/2'
  16  'x+1/2, -y+1/2, z+1/2'
loop_
 _atom_site_type_symbol
 _atom_site_label
 _atom_site_symmetry_multiplicity
 _atom_site_fract_x
 _atom_site_fract_y
 _atom_site_fract_z
 _atom_site_occupancy
  U  U0  4  0.00000000  0.31309325  0.25000000  1
  U  U1  4  0.00000000  0.43714541  0.75000000  1
  Ti  Ti2  16  0.24603714  0.87504260  0.00002955  1
  Ti  Ti3  8  0.24242496  0.18739759  0.25000000  1
  Ti  Ti4  8  0.24797261  0.06248035  0.75000000  1
  Ti  Ti5  8  0.24875287  0.00000000  0.00000000  1
  Ti  Ti6  8  0.25000000  0.25000000  0.00000000  1
  Ge  Ge7  8  0.18857800  0.18756821  0.75000000  1
  Ge  Ge8  8  0.18991375  0.06237658  0.25000000  1
  Ge  Ge9  4  0.00000000  0.02064799  0.75000000  1
  Ge  Ge10  4  0.00000000  0.10316467  0.75000000  1
  Ge  Ge11  4  0.00000000  0.14580362  0.25000000  1
  Ge  Ge12  4  0.00000000  0.23285057  0.25000000  1
  Ge  Ge13  4  0.00000000  0.27469435  0.75000000  1
  Ge  Ge14  4  0.00000000  0.35392849  0.75000000  1
  Ge  Ge15  4  0.00000000  0.39547028  0.25000000  1
  Ge  Ge16  4  0.00000000  0.47889480  0.25000000  1
