# generated using pymatgen
data_U(FeSn)6
_symmetry_space_group_name_H-M   Cmcm
_cell_length_a   9.04344399
_cell_length_b   74.75850959
_cell_length_c   5.40860277
_cell_angle_alpha   90.00000000
_cell_angle_beta   90.00000000
_cell_angle_gamma   90.00000000
_symmetry_Int_Tables_number   63
_chemical_formula_structural   U(FeSn)6
_chemical_formula_sum   'U16 Fe96 Sn96'
_cell_volume   3656.61784355
_cell_formula_units_Z   16
loop_
 _symmetry_equiv_pos_site_id
 _symmetry_equiv_pos_as_xyz
  1  'x, y, z'
  2  '-x, -y, -z'
  3  '-x, -y, z+1/2'
  4  'x, y, -z+1/2'
  5  'x, -y, -z'
  6  '-x, y, z'
  7  '-x, y, -z+1/2'
  8  'x, -y, z+1/2'
  9  'x+1/2, y+1/2, z'
  10  '-x+1/2, -y+1/2, -z'
  11  '-x+1/2, -y+1/2, z+1/2'
  12  'x+1/2, y+1/2, -z+1/2'
  13  'x+1/2, -y+1/2, -z'
  14  '-x+1/2, y+1/2, z'
  15  '-x+1/2, y+1/2, -z+1/2'
  16  'x+1/2, -y+1/2, z+1/2'
loop_
 _atom_site_type_symbol
 _atom_site_label
 _atom_site_symmetry_multiplicity
 _atom_site_fract_x
 _atom_site_fract_y
 _atom_site_fract_z
 _atom_site_occupancy
  U  U0  4  0.00000000  0.03172614  0.25000000  1
  U  U1  4  0.00000000  0.28097655  0.25000000  1
  U  U2  4  0.00000000  0.34379000  0.75000000  1
  U  U3  4  0.00000000  0.40665000  0.25000000  1
  Fe  Fe4  16  0.24720988  0.37500744  0.00006926  1
  Fe  Fe5  16  0.24737506  0.31248106  0.00028344  1
  Fe  Fe6  16  0.24811195  0.06236768  0.00141700  1
  Fe  Fe7  8  0.24194349  0.03129097  0.75000000  1
  Fe  Fe8  8  0.24471353  0.40625499  0.75000000  1
  Fe  Fe9  8  0.24474846  0.00000000  0.00000000  1
  Fe  Fe10  8  0.24559773  0.28126859  0.75000000  1
  Fe  Fe11  8  0.24733329  0.34375821  0.25000000  1
  Fe  Fe12  8  0.25000000  0.25000000  0.00000000  1
  Sn  Sn13  8  0.16424545  0.15625058  0.25000000  1
  Sn  Sn14  8  0.16438390  0.21879132  0.75000000  1
  Sn  Sn15  8  0.16502938  0.09379124  0.75000000  1
  Sn  Sn16  8  0.16540036  0.46883572  0.75000000  1
  Sn  Sn17  4  0.00000000  0.01041784  0.75000000  1
  Sn  Sn18  4  0.00000000  0.05346255  0.75000000  1
  Sn  Sn19  4  0.00000000  0.07436707  0.25000000  1
  Sn  Sn20  4  0.00000000  0.11482815  0.25000000  1
  Sn  Sn21  4  0.00000000  0.13542793  0.75000000  1
  Sn  Sn22  4  0.00000000  0.17710064  0.75000000  1
  Sn  Sn23  4  0.00000000  0.19775694  0.25000000  1
  Sn  Sn24  4  0.00000000  0.23849137  0.25000000  1
  Sn  Sn25  4  0.00000000  0.25935119  0.75000000  1
  Sn  Sn26  4  0.00000000  0.30199378  0.75000000  1
  Sn  Sn27  4  0.00000000  0.32284990  0.25000000  1
  Sn  Sn28  4  0.00000000  0.36471067  0.25000000  1
  Sn  Sn29  4  0.00000000  0.38559073  0.75000000  1
  Sn  Sn30  4  0.00000000  0.42839624  0.75000000  1
  Sn  Sn31  4  0.00000000  0.44914811  0.25000000  1
  Sn  Sn32  4  0.00000000  0.48973154  0.25000000  1
