# generated using pymatgen
data_U(CdPb)6
_symmetry_space_group_name_H-M   Cmcm
_cell_length_a   10.94593977
_cell_length_b   41.99758317
_cell_length_c   6.01120130
_cell_angle_alpha   90.00000000
_cell_angle_beta   90.00000000
_cell_angle_gamma   90.00000000
_symmetry_Int_Tables_number   63
_chemical_formula_structural   U(CdPb)6
_chemical_formula_sum   'U8 Cd48 Pb48'
_cell_volume   2763.36736829
_cell_formula_units_Z   8
loop_
 _symmetry_equiv_pos_site_id
 _symmetry_equiv_pos_as_xyz
  1  'x, y, z'
  2  '-x, -y, -z'
  3  '-x, -y, z+1/2'
  4  'x, y, -z+1/2'
  5  'x, -y, -z'
  6  '-x, y, z'
  7  '-x, y, -z+1/2'
  8  'x, -y, z+1/2'
  9  'x+1/2, y+1/2, z'
  10  '-x+1/2, -y+1/2, -z'
  11  '-x+1/2, -y+1/2, z+1/2'
  12  'x+1/2, y+1/2, -z+1/2'
  13  'x+1/2, -y+1/2, -z'
  14  '-x+1/2, y+1/2, z'
  15  '-x+1/2, y+1/2, -z+1/2'
  16  'x+1/2, -y+1/2, z+1/2'
loop_
 _atom_site_type_symbol
 _atom_site_label
 _atom_site_symmetry_multiplicity
 _atom_site_fract_x
 _atom_site_fract_y
 _atom_site_fract_z
 _atom_site_occupancy
  U  U0  4  0.00000000  0.06347323  0.75000000  1
  U  U1  4  0.00000000  0.18916141  0.25000000  1
  Cd  Cd2  16  0.23858398  0.87554699  0.00351841  1
  Cd  Cd3  8  0.23424306  0.00000000  0.00000000  1
  Cd  Cd4  8  0.23465691  0.06296981  0.25000000  1
  Cd  Cd5  8  0.23471097  0.18804120  0.75000000  1
  Cd  Cd6  8  0.25000000  0.25000000  0.00000000  1
  Pb  Pb7  8  0.19877913  0.31371175  0.75000000  1
  Pb  Pb8  8  0.19946115  0.43831155  0.25000000  1
  Pb  Pb9  4  0.00000000  0.02195306  0.25000000  1
  Pb  Pb10  4  0.00000000  0.10556607  0.25000000  1
  Pb  Pb11  4  0.00000000  0.14643015  0.75000000  1
  Pb  Pb12  4  0.00000000  0.22768177  0.75000000  1
  Pb  Pb13  4  0.00000000  0.26898701  0.25000000  1
  Pb  Pb14  4  0.00000000  0.35505711  0.25000000  1
  Pb  Pb15  4  0.00000000  0.39721309  0.75000000  1
  Pb  Pb16  4  0.00000000  0.47837154  0.75000000  1
