# generated using pymatgen
data_Hf6USi6
_symmetry_space_group_name_H-M   Cmcm
_cell_length_a   8.77388078
_cell_length_b   80.29927153
_cell_length_c   5.76940121
_cell_angle_alpha   90.00000000
_cell_angle_beta   90.00000000
_cell_angle_gamma   90.00000000
_symmetry_Int_Tables_number   63
_chemical_formula_structural   Hf6USi6
_chemical_formula_sum   'Hf96 U16 Si96'
_cell_volume   4064.75221031
_cell_formula_units_Z   16
loop_
 _symmetry_equiv_pos_site_id
 _symmetry_equiv_pos_as_xyz
  1  'x, y, z'
  2  '-x, -y, -z'
  3  '-x, -y, z+1/2'
  4  'x, y, -z+1/2'
  5  'x, -y, -z'
  6  '-x, y, z'
  7  '-x, y, -z+1/2'
  8  'x, -y, z+1/2'
  9  'x+1/2, y+1/2, z'
  10  '-x+1/2, -y+1/2, -z'
  11  '-x+1/2, -y+1/2, z+1/2'
  12  'x+1/2, y+1/2, -z+1/2'
  13  'x+1/2, -y+1/2, -z'
  14  '-x+1/2, y+1/2, z'
  15  '-x+1/2, y+1/2, -z+1/2'
  16  'x+1/2, -y+1/2, z+1/2'
loop_
 _atom_site_type_symbol
 _atom_site_label
 _atom_site_symmetry_multiplicity
 _atom_site_fract_x
 _atom_site_fract_y
 _atom_site_fract_z
 _atom_site_occupancy
  Hf  Hf0  16  0.24673299  0.12499895  0.50013798  1
  Hf  Hf1  16  0.24706947  0.18752683  0.50001287  1
  Hf  Hf2  16  0.24793451  0.06261035  0.50018961  1
  Hf  Hf3  8  0.23504554  0.21887065  0.25000000  1
  Hf  Hf4  8  0.23844176  0.09377136  0.25000000  1
  Hf  Hf5  8  0.24361016  0.46877443  0.25000000  1
  Hf  Hf6  8  0.24481593  0.15619461  0.75000000  1
  Hf  Hf7  8  0.24846071  0.00000000  0.00000000  1
  Hf  Hf8  8  0.25000000  0.25000000  0.00000000  1
  U  U9  4  0.00000000  0.03131431  0.25000000  1
  U  U10  4  0.00000000  0.28167808  0.25000000  1
  U  U11  4  0.00000000  0.34379519  0.75000000  1
  U  U12  4  0.00000000  0.40616245  0.25000000  1
  Si  Si13  8  0.17630692  0.21894709  0.75000000  1
  Si  Si14  8  0.17640288  0.09372813  0.75000000  1
  Si  Si15  8  0.17715531  0.46858427  0.75000000  1
  Si  Si16  8  0.17730238  0.84375935  0.75000000  1
  Si  Si17  4  0.00000000  0.01090726  0.75000000  1
  Si  Si18  4  0.00000000  0.05059773  0.75000000  1
  Si  Si19  4  0.00000000  0.07122395  0.25000000  1
  Si  Si20  4  0.00000000  0.11520849  0.25000000  1
  Si  Si21  4  0.00000000  0.13527865  0.75000000  1
  Si  Si22  4  0.00000000  0.17722736  0.75000000  1
  Si  Si23  4  0.00000000  0.19717077  0.25000000  1
  Si  Si24  4  0.00000000  0.24202753  0.25000000  1
  Si  Si25  4  0.00000000  0.26300340  0.75000000  1
  Si  Si26  4  0.00000000  0.30076148  0.75000000  1
  Si  Si27  4  0.00000000  0.32327201  0.25000000  1
  Si  Si28  4  0.00000000  0.36442387  0.25000000  1
  Si  Si29  4  0.00000000  0.38622225  0.75000000  1
  Si  Si30  4  0.00000000  0.42494927  0.75000000  1
  Si  Si31  4  0.00000000  0.44586531  0.25000000  1
  Si  Si32  4  0.00000000  0.49047251  0.25000000  1
