# generated using pymatgen
data_U(MnSn)6
_symmetry_space_group_name_H-M   Cmcm
_cell_length_a   9.22282212
_cell_length_b   76.11242848
_cell_length_c   5.49657988
_cell_angle_alpha   90.00000000
_cell_angle_beta   90.00000000
_cell_angle_gamma   90.00000000
_symmetry_Int_Tables_number   63
_chemical_formula_structural   U(MnSn)6
_chemical_formula_sum   'U16 Mn96 Sn96'
_cell_volume   3858.44181023
_cell_formula_units_Z   16
loop_
 _symmetry_equiv_pos_site_id
 _symmetry_equiv_pos_as_xyz
  1  'x, y, z'
  2  '-x, -y, -z'
  3  '-x, -y, z+1/2'
  4  'x, y, -z+1/2'
  5  'x, -y, -z'
  6  '-x, y, z'
  7  '-x, y, -z+1/2'
  8  'x, -y, z+1/2'
  9  'x+1/2, y+1/2, z'
  10  '-x+1/2, -y+1/2, -z'
  11  '-x+1/2, -y+1/2, z+1/2'
  12  'x+1/2, y+1/2, -z+1/2'
  13  'x+1/2, -y+1/2, -z'
  14  '-x+1/2, y+1/2, z'
  15  '-x+1/2, y+1/2, -z+1/2'
  16  'x+1/2, -y+1/2, z+1/2'
loop_
 _atom_site_type_symbol
 _atom_site_label
 _atom_site_symmetry_multiplicity
 _atom_site_fract_x
 _atom_site_fract_y
 _atom_site_fract_z
 _atom_site_occupancy
  U  U0  4  0.00000000  0.09350060  0.75000000  1
  U  U1  4  0.00000000  0.15622416  0.25000000  1
  U  U2  4  0.00000000  0.21884494  0.75000000  1
  U  U3  4  0.00000000  0.46849775  0.75000000  1
  Mn  Mn4  16  0.24359067  0.31249628  0.50014094  1
  Mn  Mn5  16  0.24370285  0.37500035  0.50011525  1
  Mn  Mn6  16  0.24822342  0.43749849  0.50004197  1
  Mn  Mn7  8  0.24370492  0.34375924  0.25000000  1
  Mn  Mn8  8  0.24464740  0.28124201  0.75000000  1
  Mn  Mn9  8  0.24567971  0.40622067  0.75000000  1
  Mn  Mn10  8  0.24768729  0.00000000  0.00000000  1
  Mn  Mn11  8  0.24966256  0.96877116  0.25000000  1
  Mn  Mn12  8  0.25000000  0.25000000  0.00000000  1
  Sn  Sn13  8  0.17362953  0.34377168  0.75000000  1
  Sn  Sn14  8  0.17402510  0.40604195  0.25000000  1
  Sn  Sn15  8  0.17409874  0.28136203  0.25000000  1
  Sn  Sn16  8  0.17562291  0.96890884  0.75000000  1
  Sn  Sn17  4  0.00000000  0.01028963  0.75000000  1
  Sn  Sn18  4  0.00000000  0.05163889  0.75000000  1
  Sn  Sn19  4  0.00000000  0.07256854  0.25000000  1
  Sn  Sn20  4  0.00000000  0.11450100  0.25000000  1
  Sn  Sn21  4  0.00000000  0.13535185  0.75000000  1
  Sn  Sn22  4  0.00000000  0.17707874  0.75000000  1
  Sn  Sn23  4  0.00000000  0.19793239  0.25000000  1
  Sn  Sn24  4  0.00000000  0.23977869  0.25000000  1
  Sn  Sn25  4  0.00000000  0.26067253  0.75000000  1
  Sn  Sn26  4  0.00000000  0.30216640  0.75000000  1
  Sn  Sn27  4  0.00000000  0.32291626  0.25000000  1
  Sn  Sn28  4  0.00000000  0.36458535  0.25000000  1
  Sn  Sn29  4  0.00000000  0.38529122  0.75000000  1
  Sn  Sn30  4  0.00000000  0.42652986  0.75000000  1
  Sn  Sn31  4  0.00000000  0.44745444  0.25000000  1
  Sn  Sn32  4  0.00000000  0.48954744  0.25000000  1
