# generated using pymatgen
data_U(HgGe)6
_symmetry_space_group_name_H-M   Pnnm
_cell_length_a   5.77170253
_cell_length_b   27.58443368
_cell_length_c   7.93198772
_cell_angle_alpha   90.00000000
_cell_angle_beta   90.00000000
_cell_angle_gamma   90.00000000
_symmetry_Int_Tables_number   58
_chemical_formula_structural   U(HgGe)6
_chemical_formula_sum   'U4 Hg24 Ge24'
_cell_volume   1262.84498871
_cell_formula_units_Z   4
loop_
 _symmetry_equiv_pos_site_id
 _symmetry_equiv_pos_as_xyz
  1  'x, y, z'
  2  '-x, -y, -z'
  3  '-x, -y, z'
  4  'x, y, -z'
  5  'x+1/2, -y+1/2, -z+1/2'
  6  '-x+1/2, y+1/2, z+1/2'
  7  '-x+1/2, y+1/2, -z+1/2'
  8  'x+1/2, -y+1/2, z+1/2'
loop_
 _atom_site_type_symbol
 _atom_site_label
 _atom_site_symmetry_multiplicity
 _atom_site_fract_x
 _atom_site_fract_y
 _atom_site_fract_z
 _atom_site_occupancy
  U  U0  4  0.24996898  0.90802178  0.50000000  1
  Hg  Hg1  8  0.00027021  0.74998531  0.25001391  1
  Hg  Hg2  8  0.24992196  0.12001798  0.20063752  1
  Hg  Hg3  4  0.00000000  0.00000000  0.27182625  1
  Hg  Hg4  4  0.00000000  0.50000000  0.22818657  1
  Ge  Ge5  8  0.24999491  0.35357064  0.34171784  1
  Ge  Ge6  4  0.24859000  0.80538266  0.50000000  1
  Ge  Ge7  4  0.24977310  0.65064094  0.00000000  1
  Ge  Ge8  4  0.24995022  0.04577327  0.00000000  1
  Ge  Ge9  4  0.24998329  0.55977651  0.00000000  1
