# generated using pymatgen
data_U(RhPb)6
_symmetry_space_group_name_H-M   Cmcm
_cell_length_a   9.41437547
_cell_length_b   39.54145576
_cell_length_c   5.69487377
_cell_angle_alpha   90.00000000
_cell_angle_beta   90.00000000
_cell_angle_gamma   90.00000000
_symmetry_Int_Tables_number   63
_chemical_formula_structural   U(RhPb)6
_chemical_formula_sum   'U8 Rh48 Pb48'
_cell_volume   2119.96295405
_cell_formula_units_Z   8
loop_
 _symmetry_equiv_pos_site_id
 _symmetry_equiv_pos_as_xyz
  1  'x, y, z'
  2  '-x, -y, -z'
  3  '-x, -y, z+1/2'
  4  'x, y, -z+1/2'
  5  'x, -y, -z'
  6  '-x, y, z'
  7  '-x, y, -z+1/2'
  8  'x, -y, z+1/2'
  9  'x+1/2, y+1/2, z'
  10  '-x+1/2, -y+1/2, -z'
  11  '-x+1/2, -y+1/2, z+1/2'
  12  'x+1/2, y+1/2, -z+1/2'
  13  'x+1/2, -y+1/2, -z'
  14  '-x+1/2, y+1/2, z'
  15  '-x+1/2, y+1/2, -z+1/2'
  16  'x+1/2, -y+1/2, z+1/2'
loop_
 _atom_site_type_symbol
 _atom_site_label
 _atom_site_symmetry_multiplicity
 _atom_site_fract_x
 _atom_site_fract_y
 _atom_site_fract_z
 _atom_site_occupancy
  U  U0  4  0.00000000  0.06505731  0.25000000  1
  U  U1  4  0.00000000  0.19097113  0.75000000  1
  Rh  Rh2  16  0.24159863  0.12436210  0.00312965  1
  Rh  Rh3  8  0.23913865  0.18774295  0.25000000  1
  Rh  Rh4  8  0.23965183  0.06262673  0.75000000  1
  Rh  Rh5  8  0.24023114  0.00000000  0.00000000  1
  Rh  Rh6  8  0.25000000  0.25000000  0.00000000  1
  Pb  Pb7  8  0.17519001  0.43909778  0.75000000  1
  Pb  Pb8  8  0.17541713  0.31360847  0.25000000  1
  Pb  Pb9  4  0.00000000  0.02097978  0.75000000  1
  Pb  Pb10  4  0.00000000  0.10573444  0.75000000  1
  Pb  Pb11  4  0.00000000  0.14736574  0.25000000  1
  Pb  Pb12  4  0.00000000  0.23121302  0.25000000  1
  Pb  Pb13  4  0.00000000  0.27344991  0.75000000  1
  Pb  Pb14  4  0.00000000  0.35561148  0.75000000  1
  Pb  Pb15  4  0.00000000  0.39650395  0.25000000  1
  Pb  Pb16  4  0.00000000  0.47884177  0.25000000  1
