# generated using pymatgen
data_U(TaSn)6
_symmetry_space_group_name_H-M   Immm
_cell_length_a   5.79945522
_cell_length_b   9.75939357
_cell_length_c   30.14201898
_cell_angle_alpha   90.00000000
_cell_angle_beta   90.00000000
_cell_angle_gamma   90.00000000
_symmetry_Int_Tables_number   71
_chemical_formula_structural   U(TaSn)6
_chemical_formula_sum   'U6 Ta36 Sn36'
_cell_volume   1706.01313447
_cell_formula_units_Z   6
loop_
 _symmetry_equiv_pos_site_id
 _symmetry_equiv_pos_as_xyz
  1  'x, y, z'
  2  '-x, -y, -z'
  3  '-x, -y, z'
  4  'x, y, -z'
  5  'x, -y, -z'
  6  '-x, y, z'
  7  '-x, y, -z'
  8  'x, -y, z'
  9  'x+1/2, y+1/2, z+1/2'
  10  '-x+1/2, -y+1/2, -z+1/2'
  11  '-x+1/2, -y+1/2, z+1/2'
  12  'x+1/2, y+1/2, -z+1/2'
  13  'x+1/2, -y+1/2, -z+1/2'
  14  '-x+1/2, y+1/2, z+1/2'
  15  '-x+1/2, y+1/2, -z+1/2'
  16  'x+1/2, -y+1/2, z+1/2'
loop_
 _atom_site_type_symbol
 _atom_site_label
 _atom_site_symmetry_multiplicity
 _atom_site_fract_x
 _atom_site_fract_y
 _atom_site_fract_z
 _atom_site_occupancy
  U  U0  4  0.00000000  0.50000000  0.16770945  1
  U  U1  2  0.00000000  0.00000000  0.50000000  1
  Ta  Ta2  16  0.24994046  0.24824709  0.41664953  1
  Ta  Ta3  8  0.00000000  0.24879295  0.66671220  1
  Ta  Ta4  8  0.25000000  0.25000000  0.25000000  1
  Ta  Ta5  4  0.00000000  0.25145739  0.00000000  1
  Sn  Sn6  8  0.00000000  0.17993828  0.16623775  1
  Sn  Sn7  4  0.00000000  0.00000000  0.05569669  1
  Sn  Sn8  4  0.00000000  0.00000000  0.27885001  1
  Sn  Sn9  4  0.00000000  0.00000000  0.38849593  1
  Sn  Sn10  4  0.00000000  0.31840223  0.50000000  1
  Sn  Sn11  4  0.00000000  0.50000000  0.05556594  1
  Sn  Sn12  4  0.00000000  0.50000000  0.27632183  1
  Sn  Sn13  4  0.00000000  0.50000000  0.38934851  1
