# generated using pymatgen
data_U(PbW)6
_symmetry_space_group_name_H-M   C2/m
_cell_length_a   12.21096481
_cell_length_b   9.63712971
_cell_length_c   5.36896858
_cell_angle_alpha   90.00000000
_cell_angle_beta   115.89986570
_cell_angle_gamma   90.00000000
_symmetry_Int_Tables_number   12
_chemical_formula_structural   U(PbW)6
_chemical_formula_sum   'U2 Pb12 W12'
_cell_volume   568.35293174
_cell_formula_units_Z   2
loop_
 _symmetry_equiv_pos_site_id
 _symmetry_equiv_pos_as_xyz
  1  'x, y, z'
  2  '-x, -y, -z'
  3  '-x, y, -z'
  4  'x, -y, z'
  5  'x+1/2, y+1/2, z'
  6  '-x+1/2, -y+1/2, -z'
  7  '-x+1/2, y+1/2, -z'
  8  'x+1/2, -y+1/2, z'
loop_
 _atom_site_type_symbol
 _atom_site_label
 _atom_site_symmetry_multiplicity
 _atom_site_fract_x
 _atom_site_fract_y
 _atom_site_fract_z
 _atom_site_occupancy
  U  U0  2  0.00000000  0.00000000  0.00000000  1
  Pb  Pb1  4  0.00000000  0.17618813  0.50000000  1
  Pb  Pb2  4  0.00000000  0.33386003  0.00000000  1
  Pb  Pb3  4  0.18223702  0.50000000  0.68230170  1
  W  W4  4  0.21142412  0.00000000  0.71152170  1
  W  W5  4  0.25000000  0.25000000  0.00000000  1
  W  W6  4  0.25000000  0.25000000  0.50000000  1
