# generated using pymatgen
data_U(MnSi)6
_symmetry_space_group_name_H-M   Cmcm
_cell_length_a   7.98008641
_cell_length_b   67.77230475
_cell_length_c   4.86313014
_cell_angle_alpha   90.00000000
_cell_angle_beta   90.00000000
_cell_angle_gamma   90.00000000
_symmetry_Int_Tables_number   63
_chemical_formula_structural   U(MnSi)6
_chemical_formula_sum   'U16 Mn96 Si96'
_cell_volume   2630.12107446
_cell_formula_units_Z   16
loop_
 _symmetry_equiv_pos_site_id
 _symmetry_equiv_pos_as_xyz
  1  'x, y, z'
  2  '-x, -y, -z'
  3  '-x, -y, z+1/2'
  4  'x, y, -z+1/2'
  5  'x, -y, -z'
  6  '-x, y, z'
  7  '-x, y, -z+1/2'
  8  'x, -y, z+1/2'
  9  'x+1/2, y+1/2, z'
  10  '-x+1/2, -y+1/2, -z'
  11  '-x+1/2, -y+1/2, z+1/2'
  12  'x+1/2, y+1/2, -z+1/2'
  13  'x+1/2, -y+1/2, -z'
  14  '-x+1/2, y+1/2, z'
  15  '-x+1/2, y+1/2, -z+1/2'
  16  'x+1/2, -y+1/2, z+1/2'
loop_
 _atom_site_type_symbol
 _atom_site_label
 _atom_site_symmetry_multiplicity
 _atom_site_fract_x
 _atom_site_fract_y
 _atom_site_fract_z
 _atom_site_occupancy
  U  U0  4  0.00000000  0.03211851  0.75000000  1
  U  U1  4  0.00000000  0.28049382  0.75000000  1
  U  U2  4  0.00000000  0.34376229  0.25000000  1
  U  U3  4  0.00000000  0.40718849  0.75000000  1
  Mn  Mn4  16  0.24711883  0.12500151  0.50048314  1
  Mn  Mn5  16  0.24720775  0.18750159  0.50026939  1
  Mn  Mn6  16  0.24950565  0.06242008  0.50104763  1
  Mn  Mn7  8  0.24647184  0.03128208  0.25000000  1
  Mn  Mn8  8  0.24771475  0.15622873  0.25000000  1
  Mn  Mn9  8  0.24793792  0.40626418  0.25000000  1
  Mn  Mn10  8  0.24795950  0.50000000  0.00000000  1
  Mn  Mn11  8  0.24887339  0.28125518  0.25000000  1
  Mn  Mn12  8  0.25000000  0.25000000  0.00000000  1
  Si  Si13  8  0.14830199  0.15625012  0.75000000  1
  Si  Si14  8  0.14874331  0.21856294  0.25000000  1
  Si  Si15  8  0.14890743  0.09396970  0.25000000  1
  Si  Si16  8  0.14930462  0.46901362  0.25000000  1
  Si  Si17  4  0.00000000  0.01013430  0.25000000  1
  Si  Si18  4  0.00000000  0.05439222  0.25000000  1
  Si  Si19  4  0.00000000  0.07461656  0.75000000  1
  Si  Si20  4  0.00000000  0.11458085  0.75000000  1
  Si  Si21  4  0.00000000  0.13544871  0.25000000  1
  Si  Si22  4  0.00000000  0.17703099  0.25000000  1
  Si  Si23  4  0.00000000  0.19787827  0.75000000  1
  Si  Si24  4  0.00000000  0.23813190  0.75000000  1
  Si  Si25  4  0.00000000  0.25838959  0.25000000  1
  Si  Si26  4  0.00000000  0.30206141  0.25000000  1
  Si  Si27  4  0.00000000  0.32263559  0.75000000  1
  Si  Si28  4  0.00000000  0.36496905  0.75000000  1
  Si  Si29  4  0.00000000  0.38545508  0.25000000  1
  Si  Si30  4  0.00000000  0.42936793  0.25000000  1
  Si  Si31  4  0.00000000  0.44964068  0.75000000  1
  Si  Si32  4  0.00000000  0.48955169  0.75000000  1
