# generated using pymatgen
data_U(CuSn)6
_symmetry_space_group_name_H-M   Cmcm
_cell_length_a   9.14036512
_cell_length_b   19.25723095
_cell_length_c   5.50794591
_cell_angle_alpha   90.00000000
_cell_angle_beta   90.00000000
_cell_angle_gamma   90.00000000
_symmetry_Int_Tables_number   63
_chemical_formula_structural   U(CuSn)6
_chemical_formula_sum   'U4 Cu24 Sn24'
_cell_volume   969.49829519
_cell_formula_units_Z   4
loop_
 _symmetry_equiv_pos_site_id
 _symmetry_equiv_pos_as_xyz
  1  'x, y, z'
  2  '-x, -y, -z'
  3  '-x, -y, z+1/2'
  4  'x, y, -z+1/2'
  5  'x, -y, -z'
  6  '-x, y, z'
  7  '-x, y, -z+1/2'
  8  'x, -y, z+1/2'
  9  'x+1/2, y+1/2, z'
  10  '-x+1/2, -y+1/2, -z'
  11  '-x+1/2, -y+1/2, z+1/2'
  12  'x+1/2, y+1/2, -z+1/2'
  13  'x+1/2, -y+1/2, -z'
  14  '-x+1/2, y+1/2, z'
  15  '-x+1/2, y+1/2, -z+1/2'
  16  'x+1/2, -y+1/2, z+1/2'
loop_
 _atom_site_type_symbol
 _atom_site_label
 _atom_site_symmetry_multiplicity
 _atom_site_fract_x
 _atom_site_fract_y
 _atom_site_fract_z
 _atom_site_occupancy
  U  U0  4  0.00000000  0.37557917  0.75000000  1
  Cu  Cu1  8  0.23873477  0.37480087  0.25000000  1
  Cu  Cu2  8  0.23969647  0.50000000  0.00000000  1
  Cu  Cu3  8  0.25000000  0.25000000  0.00000000  1
  Sn  Sn4  8  0.16707240  0.12415595  0.25000000  1
  Sn  Sn5  4  0.00000000  0.04186724  0.75000000  1
  Sn  Sn6  4  0.00000000  0.20880668  0.75000000  1
  Sn  Sn7  4  0.00000000  0.29204326  0.25000000  1
  Sn  Sn8  4  0.00000000  0.45825630  0.25000000  1
