# generated using pymatgen
data_U(ZnSn)6
_symmetry_space_group_name_H-M   P2_1/m
_cell_length_a   10.09926757
_cell_length_b   5.15988465
_cell_length_c   12.13792238
_cell_angle_alpha   90.00000000
_cell_angle_beta   114.25790880
_cell_angle_gamma   90.00000000
_symmetry_Int_Tables_number   11
_chemical_formula_structural   U(ZnSn)6
_chemical_formula_sum   'U2 Zn12 Sn12'
_cell_volume   576.67181634
_cell_formula_units_Z   2
loop_
 _symmetry_equiv_pos_site_id
 _symmetry_equiv_pos_as_xyz
  1  'x, y, z'
  2  '-x, -y, -z'
  3  '-x, y+1/2, -z'
  4  'x, -y+1/2, z'
loop_
 _atom_site_type_symbol
 _atom_site_label
 _atom_site_symmetry_multiplicity
 _atom_site_fract_x
 _atom_site_fract_y
 _atom_site_fract_z
 _atom_site_occupancy
  U  U0  2  0.11917819  0.25000000  0.23828091  1
  Zn  Zn1  4  0.23411905  0.00009475  0.00012660  1
  Zn  Zn2  2  0.00000000  0.00000000  0.50000000  1
  Zn  Zn3  2  0.07595615  0.25000000  0.75026127  1
  Zn  Zn4  2  0.32560277  0.75000000  0.24946884  1
  Zn  Zn5  2  0.50000000  0.00000000  0.50000000  1
  Sn  Sn6  2  0.03344946  0.75000000  0.06710352  1
  Sn  Sn7  2  0.21091769  0.75000000  0.42204320  1
  Sn  Sn8  2  0.21715634  0.75000000  0.78045408  1
  Sn  Sn9  2  0.27088728  0.25000000  0.54173381  1
  Sn  Sn10  2  0.43676584  0.25000000  0.21959145  1
  Sn  Sn11  2  0.44820756  0.25000000  0.89643195  1
