# generated using pymatgen
data_U(TcSn)6
_symmetry_space_group_name_H-M   Cmcm
_cell_length_a   9.66155829
_cell_length_b   38.18607613
_cell_length_c   5.40458622
_cell_angle_alpha   90.00000000
_cell_angle_beta   90.00000000
_cell_angle_gamma   90.00000000
_symmetry_Int_Tables_number   63
_chemical_formula_structural   U(TcSn)6
_chemical_formula_sum   'U8 Tc48 Sn48'
_cell_volume   1993.95182932
_cell_formula_units_Z   8
loop_
 _symmetry_equiv_pos_site_id
 _symmetry_equiv_pos_as_xyz
  1  'x, y, z'
  2  '-x, -y, -z'
  3  '-x, -y, z+1/2'
  4  'x, y, -z+1/2'
  5  'x, -y, -z'
  6  '-x, y, z'
  7  '-x, y, -z+1/2'
  8  'x, -y, z+1/2'
  9  'x+1/2, y+1/2, z'
  10  '-x+1/2, -y+1/2, -z'
  11  '-x+1/2, -y+1/2, z+1/2'
  12  'x+1/2, y+1/2, -z+1/2'
  13  'x+1/2, -y+1/2, -z'
  14  '-x+1/2, y+1/2, z'
  15  '-x+1/2, y+1/2, -z+1/2'
  16  'x+1/2, -y+1/2, z+1/2'
loop_
 _atom_site_type_symbol
 _atom_site_label
 _atom_site_symmetry_multiplicity
 _atom_site_fract_x
 _atom_site_fract_y
 _atom_site_fract_z
 _atom_site_occupancy
  U  U0  4  0.00000000  0.06518810  0.25000000  1
  U  U1  4  0.00000000  0.19315057  0.75000000  1
  Tc  Tc2  16  0.24254436  0.12264856  0.02046893  1
  Tc  Tc3  8  0.23141017  0.19160622  0.25000000  1
  Tc  Tc4  8  0.23636289  0.06311561  0.75000000  1
  Tc  Tc5  8  0.24144346  0.00000000  0.00000000  1
  Tc  Tc6  8  0.25000000  0.25000000  0.00000000  1
  Sn  Sn7  8  0.16225096  0.43965293  0.75000000  1
  Sn  Sn8  8  0.16677679  0.31563964  0.25000000  1
  Sn  Sn9  4  0.00000000  0.02108500  0.75000000  1
  Sn  Sn10  4  0.00000000  0.10690779  0.75000000  1
  Sn  Sn11  4  0.00000000  0.14923098  0.25000000  1
  Sn  Sn12  4  0.00000000  0.23548494  0.25000000  1
  Sn  Sn13  4  0.00000000  0.27737174  0.75000000  1
  Sn  Sn14  4  0.00000000  0.35667235  0.75000000  1
  Sn  Sn15  4  0.00000000  0.39796182  0.25000000  1
  Sn  Sn16  4  0.00000000  0.47869192  0.25000000  1
