# generated using pymatgen
data_Zr6UGe6
_symmetry_space_group_name_H-M   Cmcm
_cell_length_a   8.93847891
_cell_length_b   41.16867240
_cell_length_c   5.94066277
_cell_angle_alpha   90.00000000
_cell_angle_beta   90.00000000
_cell_angle_gamma   90.00000000
_symmetry_Int_Tables_number   63
_chemical_formula_structural   Zr6UGe6
_chemical_formula_sum   'Zr48 U8 Ge48'
_cell_volume   2186.07663180
_cell_formula_units_Z   8
loop_
 _symmetry_equiv_pos_site_id
 _symmetry_equiv_pos_as_xyz
  1  'x, y, z'
  2  '-x, -y, -z'
  3  '-x, -y, z+1/2'
  4  'x, y, -z+1/2'
  5  'x, -y, -z'
  6  '-x, y, z'
  7  '-x, y, -z+1/2'
  8  'x, -y, z+1/2'
  9  'x+1/2, y+1/2, z'
  10  '-x+1/2, -y+1/2, -z'
  11  '-x+1/2, -y+1/2, z+1/2'
  12  'x+1/2, y+1/2, -z+1/2'
  13  'x+1/2, -y+1/2, -z'
  14  '-x+1/2, y+1/2, z'
  15  '-x+1/2, y+1/2, -z+1/2'
  16  'x+1/2, -y+1/2, z+1/2'
loop_
 _atom_site_type_symbol
 _atom_site_label
 _atom_site_symmetry_multiplicity
 _atom_site_fract_x
 _atom_site_fract_y
 _atom_site_fract_z
 _atom_site_occupancy
  Zr  Zr0  16  0.24863719  0.37490163  0.50042569  1
  Zr  Zr1  8  0.24691365  0.00000000  0.00000000  1
  Zr  Zr2  8  0.24715814  0.31253434  0.25000000  1
  Zr  Zr3  8  0.24957699  0.43755830  0.75000000  1
  Zr  Zr4  8  0.25000000  0.25000000  0.00000000  1
  U  U5  4  0.00000000  0.06360583  0.75000000  1
  U  U6  4  0.00000000  0.18857596  0.25000000  1
  Ge  Ge7  8  0.17567224  0.43783516  0.25000000  1
  Ge  Ge8  8  0.17585406  0.31245414  0.75000000  1
  Ge  Ge9  4  0.00000000  0.02168641  0.25000000  1
  Ge  Ge10  4  0.00000000  0.10426951  0.25000000  1
  Ge  Ge11  4  0.00000000  0.14539823  0.75000000  1
  Ge  Ge12  4  0.00000000  0.22671649  0.75000000  1
  Ge  Ge13  4  0.00000000  0.26856365  0.25000000  1
  Ge  Ge14  4  0.00000000  0.35417357  0.25000000  1
  Ge  Ge15  4  0.00000000  0.39635451  0.75000000  1
  Ge  Ge16  4  0.00000000  0.47977201  0.75000000  1
