# generated using pymatgen
data_U(SnMo)6
_symmetry_space_group_name_H-M   Cmcm
_cell_length_a   9.57584078
_cell_length_b   38.77074193
_cell_length_c   5.58709378
_cell_angle_alpha   90.00000000
_cell_angle_beta   90.00000000
_cell_angle_gamma   90.00000000
_symmetry_Int_Tables_number   63
_chemical_formula_structural   U(SnMo)6
_chemical_formula_sum   'U8 Sn48 Mo48'
_cell_volume   2074.27813398
_cell_formula_units_Z   8
loop_
 _symmetry_equiv_pos_site_id
 _symmetry_equiv_pos_as_xyz
  1  'x, y, z'
  2  '-x, -y, -z'
  3  '-x, -y, z+1/2'
  4  'x, y, -z+1/2'
  5  'x, -y, -z'
  6  '-x, y, z'
  7  '-x, y, -z+1/2'
  8  'x, -y, z+1/2'
  9  'x+1/2, y+1/2, z'
  10  '-x+1/2, -y+1/2, -z'
  11  '-x+1/2, -y+1/2, z+1/2'
  12  'x+1/2, y+1/2, -z+1/2'
  13  'x+1/2, -y+1/2, -z'
  14  '-x+1/2, y+1/2, z'
  15  '-x+1/2, y+1/2, -z+1/2'
  16  'x+1/2, -y+1/2, z+1/2'
loop_
 _atom_site_type_symbol
 _atom_site_label
 _atom_site_symmetry_multiplicity
 _atom_site_fract_x
 _atom_site_fract_y
 _atom_site_fract_z
 _atom_site_occupancy
  U  U0  4  0.00000000  0.06419865  0.75000000  1
  U  U1  4  0.00000000  0.18949187  0.25000000  1
  Sn  Sn2  8  0.17802581  0.31288342  0.75000000  1
  Sn  Sn3  8  0.17857344  0.43806081  0.25000000  1
  Sn  Sn4  4  0.00000000  0.02095958  0.25000000  1
  Sn  Sn5  4  0.00000000  0.10546821  0.25000000  1
  Sn  Sn6  4  0.00000000  0.14676058  0.75000000  1
  Sn  Sn7  4  0.00000000  0.22943617  0.75000000  1
  Sn  Sn8  4  0.00000000  0.27174670  0.25000000  1
  Sn  Sn9  4  0.00000000  0.35457160  0.25000000  1
  Sn  Sn10  4  0.00000000  0.39672298  0.75000000  1
  Sn  Sn11  4  0.00000000  0.47866807  0.75000000  1
  Mo  Mo12  16  0.24992679  0.12466201  0.50175371  1
  Mo  Mo13  8  0.24777898  0.18750054  0.75000000  1
  Mo  Mo14  8  0.24780459  0.06261189  0.25000000  1
  Mo  Mo15  8  0.24889809  0.00000000  0.00000000  1
  Mo  Mo16  8  0.25000000  0.25000000  0.00000000  1
