# generated using pymatgen
data_U(NiGe)6
_symmetry_space_group_name_H-M   C2/c
_cell_length_a   7.96860960
_cell_length_b   70.26511120
_cell_length_c   5.15515304
_cell_angle_alpha   90.00000000
_cell_angle_beta   96.01945568
_cell_angle_gamma   90.00000000
_symmetry_Int_Tables_number   15
_chemical_formula_structural   U(NiGe)6
_chemical_formula_sum   'U16 Ni96 Ge96'
_cell_volume   2870.53386295
_cell_formula_units_Z   16
loop_
 _symmetry_equiv_pos_site_id
 _symmetry_equiv_pos_as_xyz
  1  'x, y, z'
  2  '-x, -y, -z'
  3  '-x, y, -z+1/2'
  4  'x, -y, z+1/2'
  5  'x+1/2, y+1/2, z'
  6  '-x+1/2, -y+1/2, -z'
  7  '-x+1/2, y+1/2, -z+1/2'
  8  'x+1/2, -y+1/2, z+1/2'
loop_
 _atom_site_type_symbol
 _atom_site_label
 _atom_site_symmetry_multiplicity
 _atom_site_fract_x
 _atom_site_fract_y
 _atom_site_fract_z
 _atom_site_occupancy
  U  U0  4  0.00000000  0.03168093  0.75000000  1
  U  U1  4  0.00000000  0.28067881  0.75000000  1
  U  U2  4  0.00000000  0.34376432  0.25000000  1
  U  U3  4  0.00000000  0.40683356  0.75000000  1
  Ni  Ni4  8  0.24355379  0.03130053  0.24700192  1
  Ni  Ni5  8  0.24721571  0.00020392  0.99929746  1
  Ni  Ni6  8  0.24730283  0.93752505  0.50091671  1
  Ni  Ni7  8  0.24770492  0.06257203  0.50183821  1
  Ni  Ni8  8  0.24799728  0.15625152  0.25419688  1
  Ni  Ni9  8  0.24803084  0.21878330  0.75410062  1
  Ni  Ni10  8  0.24830256  0.18736347  0.50351317  1
  Ni  Ni11  8  0.24832949  0.18758675  0.00273985  1
  Ni  Ni12  8  0.24842364  0.12515324  0.50340373  1
  Ni  Ni13  8  0.24844936  0.12492251  0.00281994  1
  Ni  Ni14  8  0.24979473  0.40621193  0.24570596  1
  Ni  Ni15  4  0.25000000  0.25000000  0.00000000  1
  Ni  Ni16  4  0.25000000  0.25000000  0.50000000  1
  Ge  Ge17  8  0.15337570  0.21883054  0.25254780  1
  Ge  Ge18  8  0.15343386  0.46864471  0.25285308  1
  Ge  Ge19  8  0.15360689  0.15626258  0.75261272  1
  Ge  Ge20  8  0.15377579  0.09383282  0.25270973  1
  Ge  Ge21  4  0.00000000  0.01057433  0.25000000  1
  Ge  Ge22  4  0.00000000  0.05291726  0.25000000  1
  Ge  Ge23  4  0.00000000  0.07389573  0.75000000  1
  Ge  Ge24  4  0.00000000  0.11463592  0.75000000  1
  Ge  Ge25  4  0.00000000  0.13547408  0.25000000  1
  Ge  Ge26  4  0.00000000  0.17705238  0.25000000  1
  Ge  Ge27  4  0.00000000  0.19793629  0.75000000  1
  Ge  Ge28  4  0.00000000  0.23893268  0.75000000  1
  Ge  Ge29  4  0.00000000  0.25968667  0.25000000  1
  Ge  Ge30  4  0.00000000  0.30180189  0.25000000  1
  Ge  Ge31  4  0.00000000  0.32284917  0.75000000  1
  Ge  Ge32  4  0.00000000  0.36461117  0.75000000  1
  Ge  Ge33  4  0.00000000  0.38571874  0.25000000  1
  Ge  Ge34  4  0.00000000  0.42807645  0.25000000  1
  Ge  Ge35  4  0.00000000  0.44875418  0.75000000  1
  Ge  Ge36  4  0.00000000  0.48952268  0.75000000  1
