# generated using pymatgen
data_U(TcGe)6
_symmetry_space_group_name_H-M   Cmmm
_cell_length_a   5.34931117
_cell_length_b   46.29752607
_cell_length_c   8.46365498
_cell_angle_alpha   90.00000000
_cell_angle_beta   90.00000000
_cell_angle_gamma   90.00000000
_symmetry_Int_Tables_number   65
_chemical_formula_structural   U(TcGe)6
_chemical_formula_sum   'U10 Tc60 Ge60'
_cell_volume   2096.10772054
_cell_formula_units_Z   10
loop_
 _symmetry_equiv_pos_site_id
 _symmetry_equiv_pos_as_xyz
  1  'x, y, z'
  2  '-x, -y, -z'
  3  '-x, -y, z'
  4  'x, y, -z'
  5  'x, -y, -z'
  6  '-x, y, z'
  7  '-x, y, -z'
  8  'x, -y, z'
  9  'x+1/2, y+1/2, z'
  10  '-x+1/2, -y+1/2, -z'
  11  '-x+1/2, -y+1/2, z'
  12  'x+1/2, y+1/2, -z'
  13  'x+1/2, -y+1/2, -z'
  14  '-x+1/2, y+1/2, z'
  15  '-x+1/2, y+1/2, -z'
  16  'x+1/2, -y+1/2, z'
loop_
 _atom_site_type_symbol
 _atom_site_label
 _atom_site_symmetry_multiplicity
 _atom_site_fract_x
 _atom_site_fract_y
 _atom_site_fract_z
 _atom_site_occupancy
  U  U0  4  0.00000000  0.10075682  0.00000000  1
  U  U1  4  0.00000000  0.30068975  0.50000000  1
  U  U2  2  0.00000000  0.50000000  0.00000000  1
  Tc  Tc3  16  0.24982292  0.45000382  0.24473150  1
  Tc  Tc4  16  0.24997832  0.15000040  0.24999894  1
  Tc  Tc5  8  0.00000000  0.19992190  0.25660239  1
  Tc  Tc6  8  0.00000000  0.39990113  0.24355678  1
  Tc  Tc7  8  0.25000000  0.25000000  0.25544131  1
  Tc  Tc8  4  0.00000000  0.00000000  0.24440231  1
  Ge  Ge9  8  0.00000000  0.09982626  0.33798155  1
  Ge  Ge10  8  0.00000000  0.29981926  0.16202715  1
  Ge  Ge11  4  0.00000000  0.03312136  0.50000000  1
  Ge  Ge12  4  0.00000000  0.03345434  0.00000000  1
  Ge  Ge13  4  0.00000000  0.16605088  0.50000000  1
  Ge  Ge14  4  0.00000000  0.16716877  0.00000000  1
  Ge  Ge15  4  0.00000000  0.23316603  0.00000000  1
  Ge  Ge16  4  0.00000000  0.23334070  0.50000000  1
  Ge  Ge17  4  0.00000000  0.36603683  0.00000000  1
  Ge  Ge18  4  0.00000000  0.36714534  0.50000000  1
  Ge  Ge19  4  0.00000000  0.43317218  0.50000000  1
  Ge  Ge20  4  0.00000000  0.43320801  0.00000000  1
  Ge  Ge21  4  0.00000000  0.50000000  0.33769032  1
