# generated using pymatgen
data_U(SnOs)6
_symmetry_space_group_name_H-M   Cmcm
_cell_length_a   8.96725825
_cell_length_b   78.12442410
_cell_length_c   5.64176212
_cell_angle_alpha   90.00000000
_cell_angle_beta   90.00000000
_cell_angle_gamma   90.00000000
_symmetry_Int_Tables_number   63
_chemical_formula_structural   U(SnOs)6
_chemical_formula_sum   'U16 Sn96 Os96'
_cell_volume   3952.40351530
_cell_formula_units_Z   16
loop_
 _symmetry_equiv_pos_site_id
 _symmetry_equiv_pos_as_xyz
  1  'x, y, z'
  2  '-x, -y, -z'
  3  '-x, -y, z+1/2'
  4  'x, y, -z+1/2'
  5  'x, -y, -z'
  6  '-x, y, z'
  7  '-x, y, -z+1/2'
  8  'x, -y, z+1/2'
  9  'x+1/2, y+1/2, z'
  10  '-x+1/2, -y+1/2, -z'
  11  '-x+1/2, -y+1/2, z+1/2'
  12  'x+1/2, y+1/2, -z+1/2'
  13  'x+1/2, -y+1/2, -z'
  14  '-x+1/2, y+1/2, z'
  15  '-x+1/2, y+1/2, -z+1/2'
  16  'x+1/2, -y+1/2, z+1/2'
loop_
 _atom_site_type_symbol
 _atom_site_label
 _atom_site_symmetry_multiplicity
 _atom_site_fract_x
 _atom_site_fract_y
 _atom_site_fract_z
 _atom_site_occupancy
  U  U0  4  0.00000000  0.09366553  0.25000000  1
  U  U1  4  0.00000000  0.15623984  0.75000000  1
  U  U2  4  0.00000000  0.21870384  0.25000000  1
  U  U3  4  0.00000000  0.46855609  0.25000000  1
  Sn  Sn4  8  0.16923521  0.28117406  0.75000000  1
  Sn  Sn5  8  0.16935166  0.40626463  0.75000000  1
  Sn  Sn6  8  0.16950550  0.34375989  0.25000000  1
  Sn  Sn7  8  0.17065449  0.96882778  0.25000000  1
  Sn  Sn8  4  0.00000000  0.01043351  0.25000000  1
  Sn  Sn9  4  0.00000000  0.05188521  0.25000000  1
  Sn  Sn10  4  0.00000000  0.07267533  0.75000000  1
  Sn  Sn11  4  0.00000000  0.11461048  0.75000000  1
  Sn  Sn12  4  0.00000000  0.13541084  0.25000000  1
  Sn  Sn13  4  0.00000000  0.17707598  0.25000000  1
  Sn  Sn14  4  0.00000000  0.19788783  0.75000000  1
  Sn  Sn15  4  0.00000000  0.23956651  0.75000000  1
  Sn  Sn16  4  0.00000000  0.26033969  0.25000000  1
  Sn  Sn17  4  0.00000000  0.30205726  0.25000000  1
  Sn  Sn18  4  0.00000000  0.32288151  0.75000000  1
  Sn  Sn19  4  0.00000000  0.36459406  0.75000000  1
  Sn  Sn20  4  0.00000000  0.38544419  0.25000000  1
  Sn  Sn21  4  0.00000000  0.42680498  0.25000000  1
  Sn  Sn22  4  0.00000000  0.44760433  0.75000000  1
  Sn  Sn23  4  0.00000000  0.48964010  0.75000000  1
  Os  Os24  16  0.24866026  0.43756337  0.00047464  1
  Os  Os25  16  0.24943997  0.18752791  0.00010241  1
  Os  Os26  16  0.24949157  0.12497584  0.00007884  1
  Os  Os27  8  0.24452339  0.46873429  0.75000000  1
  Os  Os28  8  0.24707749  0.09372188  0.75000000  1
  Os  Os29  8  0.24719251  0.50000000  0.00000000  1
  Os  Os30  8  0.24882979  0.21876982  0.75000000  1
  Os  Os31  8  0.24941016  0.15625146  0.25000000  1
  Os  Os32  8  0.25000000  0.25000000  0.00000000  1
