# generated using pymatgen
data_U(SnRu)6
_symmetry_space_group_name_H-M   Cmcm
_cell_length_a   8.94954338
_cell_length_b   76.90342539
_cell_length_c   5.55965274
_cell_angle_alpha   90.00000000
_cell_angle_beta   90.00000000
_cell_angle_gamma   90.00000000
_symmetry_Int_Tables_number   63
_chemical_formula_structural   U(SnRu)6
_chemical_formula_sum   'U16 Sn96 Ru96'
_cell_volume   3826.43400999
_cell_formula_units_Z   16
loop_
 _symmetry_equiv_pos_site_id
 _symmetry_equiv_pos_as_xyz
  1  'x, y, z'
  2  '-x, -y, -z'
  3  '-x, -y, z+1/2'
  4  'x, y, -z+1/2'
  5  'x, -y, -z'
  6  '-x, y, z'
  7  '-x, y, -z+1/2'
  8  'x, -y, z+1/2'
  9  'x+1/2, y+1/2, z'
  10  '-x+1/2, -y+1/2, -z'
  11  '-x+1/2, -y+1/2, z+1/2'
  12  'x+1/2, y+1/2, -z+1/2'
  13  'x+1/2, -y+1/2, -z'
  14  '-x+1/2, y+1/2, z'
  15  '-x+1/2, y+1/2, -z+1/2'
  16  'x+1/2, -y+1/2, z+1/2'
loop_
 _atom_site_type_symbol
 _atom_site_label
 _atom_site_symmetry_multiplicity
 _atom_site_fract_x
 _atom_site_fract_y
 _atom_site_fract_z
 _atom_site_occupancy
  U  U0  4  0.00000000  0.03127309  0.25000000  1
  U  U1  4  0.00000000  0.28148288  0.25000000  1
  U  U2  4  0.00000000  0.34376061  0.75000000  1
  U  U3  4  0.00000000  0.40621729  0.25000000  1
  Sn  Sn4  8  0.16899848  0.21898693  0.75000000  1
  Sn  Sn5  8  0.16917535  0.09354384  0.75000000  1
  Sn  Sn6  8  0.16945864  0.15624208  0.25000000  1
  Sn  Sn7  8  0.17023193  0.46868624  0.75000000  1
  Sn  Sn8  4  0.00000000  0.01037390  0.75000000  1
  Sn  Sn9  4  0.00000000  0.05267636  0.75000000  1
  Sn  Sn10  4  0.00000000  0.07338004  0.25000000  1
  Sn  Sn11  4  0.00000000  0.11450297  0.25000000  1
  Sn  Sn12  4  0.00000000  0.13538031  0.75000000  1
  Sn  Sn13  4  0.00000000  0.17714782  0.75000000  1
  Sn  Sn14  4  0.00000000  0.19799160  0.25000000  1
  Sn  Sn15  4  0.00000000  0.23946305  0.25000000  1
  Sn  Sn16  4  0.00000000  0.26019148  0.75000000  1
  Sn  Sn17  4  0.00000000  0.30215733  0.75000000  1
  Sn  Sn18  4  0.00000000  0.32292407  0.25000000  1
  Sn  Sn19  4  0.00000000  0.36458270  0.25000000  1
  Sn  Sn20  4  0.00000000  0.38532288  0.75000000  1
  Sn  Sn21  4  0.00000000  0.42754180  0.75000000  1
  Sn  Sn22  4  0.00000000  0.44827815  0.25000000  1
  Sn  Sn23  4  0.00000000  0.48952613  0.25000000  1
  Ru  Ru24  16  0.24899402  0.06246895  0.00045097  1
  Ru  Ru25  16  0.24973227  0.31246267  0.00019335  1
  Ru  Ru26  16  0.24974736  0.37504971  0.00018984  1
  Ru  Ru27  8  0.24462590  0.03127465  0.75000000  1
  Ru  Ru28  8  0.24654576  0.40622651  0.75000000  1
  Ru  Ru29  8  0.24785727  0.00000000  0.00000000  1
  Ru  Ru30  8  0.24833235  0.28124014  0.75000000  1
  Ru  Ru31  8  0.24976311  0.34375604  0.25000000  1
  Ru  Ru32  8  0.25000000  0.25000000  0.00000000  1
