# generated using pymatgen
data_U(CuPb)6
_symmetry_space_group_name_H-M   Cmmm
_cell_length_a   5.65572414
_cell_length_b   49.01172612
_cell_length_c   9.72373468
_cell_angle_alpha   90.00000000
_cell_angle_beta   90.00000000
_cell_angle_gamma   90.00000000
_symmetry_Int_Tables_number   65
_chemical_formula_structural   U(CuPb)6
_chemical_formula_sum   'U10 Cu60 Pb60'
_cell_volume   2695.38816253
_cell_formula_units_Z   10
loop_
 _symmetry_equiv_pos_site_id
 _symmetry_equiv_pos_as_xyz
  1  'x, y, z'
  2  '-x, -y, -z'
  3  '-x, -y, z'
  4  'x, y, -z'
  5  'x, -y, -z'
  6  '-x, y, z'
  7  '-x, y, -z'
  8  'x, -y, z'
  9  'x+1/2, y+1/2, z'
  10  '-x+1/2, -y+1/2, -z'
  11  '-x+1/2, -y+1/2, z'
  12  'x+1/2, y+1/2, -z'
  13  'x+1/2, -y+1/2, -z'
  14  '-x+1/2, y+1/2, z'
  15  '-x+1/2, y+1/2, -z'
  16  'x+1/2, -y+1/2, z'
loop_
 _atom_site_type_symbol
 _atom_site_label
 _atom_site_symmetry_multiplicity
 _atom_site_fract_x
 _atom_site_fract_y
 _atom_site_fract_z
 _atom_site_occupancy
  U  U0  4  0.00000000  0.10040267  0.00000000  1
  U  U1  4  0.00000000  0.30037188  0.50000000  1
  U  U2  2  0.00000000  0.50000000  0.00000000  1
  Cu  Cu3  16  0.24978382  0.45004211  0.24787880  1
  Cu  Cu4  16  0.24999359  0.14999871  0.24999835  1
  Cu  Cu5  8  0.00000000  0.19996988  0.25248296  1
  Cu  Cu6  8  0.00000000  0.39997080  0.24754812  1
  Cu  Cu7  8  0.25000000  0.25000000  0.25197792  1
  Cu  Cu8  4  0.00000000  0.00000000  0.24764086  1
  Pb  Pb9  8  0.00000000  0.09978966  0.32476264  1
  Pb  Pb10  8  0.00000000  0.29980195  0.17524910  1
  Pb  Pb11  4  0.00000000  0.03323723  0.50000000  1
  Pb  Pb12  4  0.00000000  0.03335430  0.00000000  1
  Pb  Pb13  4  0.00000000  0.16671364  0.50000000  1
  Pb  Pb14  4  0.00000000  0.16671487  0.00000000  1
  Pb  Pb15  4  0.00000000  0.23325638  0.50000000  1
  Pb  Pb16  4  0.00000000  0.23334457  0.00000000  1
  Pb  Pb17  4  0.00000000  0.36670433  0.00000000  1
  Pb  Pb18  4  0.00000000  0.36671282  0.50000000  1
  Pb  Pb19  4  0.00000000  0.43320615  0.00000000  1
  Pb  Pb20  4  0.00000000  0.43334129  0.50000000  1
  Pb  Pb21  4  0.00000000  0.50000000  0.32511546  1
