# generated using pymatgen
data_U(IrPb)6
_symmetry_space_group_name_H-M   Cmcm
_cell_length_a   9.63308236
_cell_length_b   39.20927831
_cell_length_c   5.63780268
_cell_angle_alpha   90.00000000
_cell_angle_beta   90.00000000
_cell_angle_gamma   90.00000000
_symmetry_Int_Tables_number   63
_chemical_formula_structural   U(IrPb)6
_chemical_formula_sum   'U8 Ir48 Pb48'
_cell_volume   2129.43306711
_cell_formula_units_Z   8
loop_
 _symmetry_equiv_pos_site_id
 _symmetry_equiv_pos_as_xyz
  1  'x, y, z'
  2  '-x, -y, -z'
  3  '-x, -y, z+1/2'
  4  'x, y, -z+1/2'
  5  'x, -y, -z'
  6  '-x, y, z'
  7  '-x, y, -z+1/2'
  8  'x, -y, z+1/2'
  9  'x+1/2, y+1/2, z'
  10  '-x+1/2, -y+1/2, -z'
  11  '-x+1/2, -y+1/2, z+1/2'
  12  'x+1/2, y+1/2, -z+1/2'
  13  'x+1/2, -y+1/2, -z'
  14  '-x+1/2, y+1/2, z'
  15  '-x+1/2, y+1/2, -z+1/2'
  16  'x+1/2, -y+1/2, z+1/2'
loop_
 _atom_site_type_symbol
 _atom_site_label
 _atom_site_symmetry_multiplicity
 _atom_site_fract_x
 _atom_site_fract_y
 _atom_site_fract_z
 _atom_site_occupancy
  U  U0  4  0.00000000  0.30773896  0.75000000  1
  U  U1  4  0.00000000  0.43434700  0.25000000  1
  Ir  Ir2  16  0.23690600  0.37606346  0.00590823  1
  Ir  Ir3  8  0.23364811  0.31168780  0.25000000  1
  Ir  Ir4  8  0.23456804  0.43721651  0.75000000  1
  Ir  Ir5  8  0.23682468  0.50000000  0.00000000  1
  Ir  Ir6  8  0.25000000  0.25000000  0.00000000  1
  Pb  Pb7  8  0.17642141  0.06115627  0.75000000  1
  Pb  Pb8  8  0.17776938  0.18573348  0.25000000  1
  Pb  Pb9  4  0.00000000  0.02089776  0.25000000  1
  Pb  Pb10  4  0.00000000  0.10357238  0.25000000  1
  Pb  Pb11  4  0.00000000  0.14381694  0.75000000  1
  Pb  Pb12  4  0.00000000  0.22547623  0.75000000  1
  Pb  Pb13  4  0.00000000  0.26755674  0.25000000  1
  Pb  Pb14  4  0.00000000  0.35200868  0.25000000  1
  Pb  Pb15  4  0.00000000  0.39374242  0.75000000  1
  Pb  Pb16  4  0.00000000  0.47897241  0.75000000  1
