# generated using pymatgen
data_U(GePd)6
_symmetry_space_group_name_H-M   P-1
_cell_length_a   5.56534280
_cell_length_b   8.39698032
_cell_length_c   10.25463329
_cell_angle_alpha   70.02717182
_cell_angle_beta   89.30491336
_cell_angle_gamma   87.38285358
_symmetry_Int_Tables_number   2
_chemical_formula_structural   U(GePd)6
_chemical_formula_sum   'U2 Ge12 Pd12'
_cell_volume   449.92458759
_cell_formula_units_Z   2
loop_
 _symmetry_equiv_pos_site_id
 _symmetry_equiv_pos_as_xyz
  1  'x, y, z'
  2  '-x, -y, -z'
loop_
 _atom_site_type_symbol
 _atom_site_label
 _atom_site_symmetry_multiplicity
 _atom_site_fract_x
 _atom_site_fract_y
 _atom_site_fract_z
 _atom_site_occupancy
  U  U0  2  0.25007106  0.87009661  0.25726282  1
  Ge  Ge1  2  0.24939811  0.20880676  0.58176883  1
  Ge  Ge2  2  0.24942608  0.52002302  0.24954668  1
  Ge  Ge3  2  0.24974226  0.70823919  0.58404618  1
  Ge  Ge4  2  0.25033022  0.54234080  0.91526077  1
  Ge  Ge5  2  0.25054461  0.22995182  0.24874952  1
  Ge  Ge6  2  0.25054725  0.04027337  0.91975587  1
  Pd  Pd7  2  0.00104620  0.74534906  0.00032693  1
  Pd  Pd8  2  0.24927001  0.87901112  0.74968578  1
  Pd  Pd9  2  0.25064789  0.37117057  0.75000681  1
  Pd  Pd10  2  0.49880974  0.74484773  0.00109761  1
  Pd  Pd11  1  0.00000000  0.00000000  0.50000000  1
  Pd  Pd12  1  0.00000000  0.50000000  0.50000000  1
  Pd  Pd13  1  0.50000000  0.00000000  0.50000000  1
  Pd  Pd14  1  0.50000000  0.50000000  0.50000000  1
