# generated using pymatgen
data_U(FeSn)6
_symmetry_space_group_name_H-M   Cmcm
_cell_length_a   9.06885723
_cell_length_b   37.34970820
_cell_length_c   5.39785189
_cell_angle_alpha   90.00000000
_cell_angle_beta   90.00000000
_cell_angle_gamma   90.00000000
_symmetry_Int_Tables_number   63
_chemical_formula_structural   U(FeSn)6
_chemical_formula_sum   'U8 Fe48 Sn48'
_cell_volume   1828.35591919
_cell_formula_units_Z   8
loop_
 _symmetry_equiv_pos_site_id
 _symmetry_equiv_pos_as_xyz
  1  'x, y, z'
  2  '-x, -y, -z'
  3  '-x, -y, z+1/2'
  4  'x, y, -z+1/2'
  5  'x, -y, -z'
  6  '-x, y, z'
  7  '-x, y, -z+1/2'
  8  'x, -y, z+1/2'
  9  'x+1/2, y+1/2, z'
  10  '-x+1/2, -y+1/2, -z'
  11  '-x+1/2, -y+1/2, z+1/2'
  12  'x+1/2, y+1/2, -z+1/2'
  13  'x+1/2, -y+1/2, -z'
  14  '-x+1/2, y+1/2, z'
  15  '-x+1/2, y+1/2, -z+1/2'
  16  'x+1/2, -y+1/2, z+1/2'
loop_
 _atom_site_type_symbol
 _atom_site_label
 _atom_site_symmetry_multiplicity
 _atom_site_fract_x
 _atom_site_fract_y
 _atom_site_fract_z
 _atom_site_occupancy
  U  U0  4  0.00000000  0.06396952  0.25000000  1
  U  U1  4  0.00000000  0.19111660  0.75000000  1
  Fe  Fe2  16  0.24599458  0.12444404  0.00361410  1
  Fe  Fe3  8  0.24180893  0.18788153  0.25000000  1
  Fe  Fe4  8  0.24324778  0.06268612  0.75000000  1
  Fe  Fe5  8  0.24414875  0.00000000  0.00000000  1
  Fe  Fe6  8  0.25000000  0.25000000  0.00000000  1
  Sn  Sn7  8  0.16663740  0.43905835  0.75000000  1
  Sn  Sn8  8  0.16720947  0.31345875  0.25000000  1
  Sn  Sn9  4  0.00000000  0.02086709  0.75000000  1
  Sn  Sn10  4  0.00000000  0.10604751  0.75000000  1
  Sn  Sn11  4  0.00000000  0.14751426  0.25000000  1
  Sn  Sn12  4  0.00000000  0.23323183  0.25000000  1
  Sn  Sn13  4  0.00000000  0.27575334  0.75000000  1
  Sn  Sn14  4  0.00000000  0.35534189  0.75000000  1
  Sn  Sn15  4  0.00000000  0.39685772  0.25000000  1
  Sn  Sn16  4  0.00000000  0.47845987  0.25000000  1
