# generated using pymatgen
data_Hf6UGe6
_symmetry_space_group_name_H-M   Cmcm
_cell_length_a   8.32798539
_cell_length_b   20.88000324
_cell_length_c   6.03853977
_cell_angle_alpha   90.00000000
_cell_angle_beta   90.00000000
_cell_angle_gamma   90.00000000
_symmetry_Int_Tables_number   63
_chemical_formula_structural   Hf6UGe6
_chemical_formula_sum   'Hf24 U4 Ge24'
_cell_volume   1050.03178977
_cell_formula_units_Z   4
loop_
 _symmetry_equiv_pos_site_id
 _symmetry_equiv_pos_as_xyz
  1  'x, y, z'
  2  '-x, -y, -z'
  3  '-x, -y, z+1/2'
  4  'x, y, -z+1/2'
  5  'x, -y, -z'
  6  '-x, y, z'
  7  '-x, y, -z+1/2'
  8  'x, -y, z+1/2'
  9  'x+1/2, y+1/2, z'
  10  '-x+1/2, -y+1/2, -z'
  11  '-x+1/2, -y+1/2, z+1/2'
  12  'x+1/2, y+1/2, -z+1/2'
  13  'x+1/2, -y+1/2, -z'
  14  '-x+1/2, y+1/2, z'
  15  '-x+1/2, y+1/2, -z+1/2'
  16  'x+1/2, -y+1/2, z+1/2'
loop_
 _atom_site_type_symbol
 _atom_site_label
 _atom_site_symmetry_multiplicity
 _atom_site_fract_x
 _atom_site_fract_y
 _atom_site_fract_z
 _atom_site_occupancy
  Hf  Hf0  8  0.24791809  0.12519467  0.25000000  1
  Hf  Hf1  8  0.24865749  0.00000000  0.00000000  1
  Hf  Hf2  8  0.25000000  0.25000000  0.00000000  1
  U  U3  4  0.00000000  0.12615794  0.75000000  1
  Ge  Ge4  8  0.16240613  0.37548377  0.25000000  1
  Ge  Ge5  4  0.00000000  0.04155336  0.25000000  1
  Ge  Ge6  4  0.00000000  0.20758725  0.25000000  1
  Ge  Ge7  4  0.00000000  0.28972372  0.75000000  1
  Ge  Ge8  4  0.00000000  0.45805866  0.75000000  1
