# generated using pymatgen
data_U(SnPd)6
_symmetry_space_group_name_H-M   Cmcm
_cell_length_a   8.93761195
_cell_length_b   19.99505548
_cell_length_c   5.75439037
_cell_angle_alpha   90.00000000
_cell_angle_beta   90.00000000
_cell_angle_gamma   90.00000000
_symmetry_Int_Tables_number   63
_chemical_formula_structural   U(SnPd)6
_chemical_formula_sum   'U4 Sn24 Pd24'
_cell_volume   1028.35586383
_cell_formula_units_Z   4
loop_
 _symmetry_equiv_pos_site_id
 _symmetry_equiv_pos_as_xyz
  1  'x, y, z'
  2  '-x, -y, -z'
  3  '-x, -y, z+1/2'
  4  'x, y, -z+1/2'
  5  'x, -y, -z'
  6  '-x, y, z'
  7  '-x, y, -z+1/2'
  8  'x, -y, z+1/2'
  9  'x+1/2, y+1/2, z'
  10  '-x+1/2, -y+1/2, -z'
  11  '-x+1/2, -y+1/2, z+1/2'
  12  'x+1/2, y+1/2, -z+1/2'
  13  'x+1/2, -y+1/2, -z'
  14  '-x+1/2, y+1/2, z'
  15  '-x+1/2, y+1/2, -z+1/2'
  16  'x+1/2, -y+1/2, z+1/2'
loop_
 _atom_site_type_symbol
 _atom_site_label
 _atom_site_symmetry_multiplicity
 _atom_site_fract_x
 _atom_site_fract_y
 _atom_site_fract_z
 _atom_site_occupancy
  U  U0  4  0.00000000  0.12583895  0.75000000  1
  Sn  Sn1  8  0.16064781  0.37553483  0.25000000  1
  Sn  Sn2  4  0.00000000  0.04161998  0.25000000  1
  Sn  Sn3  4  0.00000000  0.21053484  0.25000000  1
  Sn  Sn4  4  0.00000000  0.29322423  0.75000000  1
  Sn  Sn5  4  0.00000000  0.45820714  0.75000000  1
  Pd  Pd6  8  0.23859894  0.12525738  0.25000000  1
  Pd  Pd7  8  0.24112363  0.00000000  0.00000000  1
  Pd  Pd8  8  0.25000000  0.25000000  0.00000000  1
