# generated using pymatgen
data_U(SiW)6
_symmetry_space_group_name_H-M   Cmcm
_cell_length_a   8.33094736
_cell_length_b   18.76936923
_cell_length_c   5.38891812
_cell_angle_alpha   90.00000000
_cell_angle_beta   90.00000000
_cell_angle_gamma   90.00000000
_symmetry_Int_Tables_number   63
_chemical_formula_structural   U(SiW)6
_chemical_formula_sum   'U4 Si24 W24'
_cell_volume   842.64695040
_cell_formula_units_Z   4
loop_
 _symmetry_equiv_pos_site_id
 _symmetry_equiv_pos_as_xyz
  1  'x, y, z'
  2  '-x, -y, -z'
  3  '-x, -y, z+1/2'
  4  'x, y, -z+1/2'
  5  'x, -y, -z'
  6  '-x, y, z'
  7  '-x, y, -z+1/2'
  8  'x, -y, z+1/2'
  9  'x+1/2, y+1/2, z'
  10  '-x+1/2, -y+1/2, -z'
  11  '-x+1/2, -y+1/2, z+1/2'
  12  'x+1/2, y+1/2, -z+1/2'
  13  'x+1/2, -y+1/2, -z'
  14  '-x+1/2, y+1/2, z'
  15  '-x+1/2, y+1/2, -z+1/2'
  16  'x+1/2, -y+1/2, z+1/2'
loop_
 _atom_site_type_symbol
 _atom_site_label
 _atom_site_symmetry_multiplicity
 _atom_site_fract_x
 _atom_site_fract_y
 _atom_site_fract_z
 _atom_site_occupancy
  U  U0  4  0.00000000  0.12284138  0.75000000  1
  Si  Si1  8  0.16068642  0.37563505  0.25000000  1
  Si  Si2  4  0.00000000  0.04280169  0.25000000  1
  Si  Si3  4  0.00000000  0.20046330  0.25000000  1
  Si  Si4  4  0.00000000  0.28385868  0.75000000  1
  Si  Si5  4  0.00000000  0.45858712  0.75000000  1
  W  W6  8  0.24150231  0.37474081  0.75000000  1
  W  W7  8  0.24651315  0.50000000  0.00000000  1
  W  W8  8  0.25000000  0.25000000  0.00000000  1
