# generated using pymatgen
data_U(ZnSn)6
_symmetry_space_group_name_H-M   P-1
_cell_length_a   6.10050477
_cell_length_b   7.08123381
_cell_length_c   7.09793412
_cell_angle_alpha   81.40359587
_cell_angle_beta   86.47531364
_cell_angle_gamma   87.59450503
_symmetry_Int_Tables_number   2
_chemical_formula_structural   U(ZnSn)6
_chemical_formula_sum   'U1 Zn6 Sn6'
_cell_volume   302.43919269
_cell_formula_units_Z   1
loop_
 _symmetry_equiv_pos_site_id
 _symmetry_equiv_pos_as_xyz
  1  'x, y, z'
  2  '-x, -y, -z'
loop_
 _atom_site_type_symbol
 _atom_site_label
 _atom_site_symmetry_multiplicity
 _atom_site_fract_x
 _atom_site_fract_y
 _atom_site_fract_z
 _atom_site_occupancy
  U  U0  1  0.00000000  0.00000000  0.00000000  1
  Zn  Zn1  2  0.32045274  0.21245779  0.21471120  1
  Zn  Zn2  1  0.00000000  0.00000000  0.50000000  1
  Zn  Zn3  1  0.00000000  0.50000000  0.00000000  1
  Zn  Zn4  1  0.50000000  0.00000000  0.50000000  1
  Zn  Zn5  1  0.50000000  0.50000000  0.00000000  1
  Sn  Sn6  2  0.00478553  0.65430206  0.34478519  1
  Sn  Sn7  2  0.24558145  0.71452304  0.71515215  1
  Sn  Sn8  2  0.49578543  0.84573201  0.15431815  1
