# generated using pymatgen
data_U(SiAg)6
_symmetry_space_group_name_H-M   Cmcm
_cell_length_a   8.27798971
_cell_length_b   39.88146487
_cell_length_c   5.63556390
_cell_angle_alpha   90.00000000
_cell_angle_beta   90.00000000
_cell_angle_gamma   90.00000000
_symmetry_Int_Tables_number   63
_chemical_formula_structural   U(SiAg)6
_chemical_formula_sum   'U8 Si48 Ag48'
_cell_volume   1860.51579934
_cell_formula_units_Z   8
loop_
 _symmetry_equiv_pos_site_id
 _symmetry_equiv_pos_as_xyz
  1  'x, y, z'
  2  '-x, -y, -z'
  3  '-x, -y, z+1/2'
  4  'x, y, -z+1/2'
  5  'x, -y, -z'
  6  '-x, y, z'
  7  '-x, y, -z+1/2'
  8  'x, -y, z+1/2'
  9  'x+1/2, y+1/2, z'
  10  '-x+1/2, -y+1/2, -z'
  11  '-x+1/2, -y+1/2, z+1/2'
  12  'x+1/2, y+1/2, -z+1/2'
  13  'x+1/2, -y+1/2, -z'
  14  '-x+1/2, y+1/2, z'
  15  '-x+1/2, y+1/2, -z+1/2'
  16  'x+1/2, -y+1/2, z+1/2'
loop_
 _atom_site_type_symbol
 _atom_site_label
 _atom_site_symmetry_multiplicity
 _atom_site_fract_x
 _atom_site_fract_y
 _atom_site_fract_z
 _atom_site_occupancy
  U  U0  4  0.00000000  0.31301899  0.75000000  1
  U  U1  4  0.00000000  0.43693431  0.25000000  1
  Si  Si2  8  0.13806100  0.05518968  0.75000000  1
  Si  Si3  8  0.13845370  0.18323778  0.25000000  1
  Si  Si4  4  0.00000000  0.02521202  0.25000000  1
  Si  Si5  4  0.00000000  0.10674428  0.25000000  1
  Si  Si6  4  0.00000000  0.14714217  0.75000000  1
  Si  Si7  4  0.00000000  0.23594418  0.75000000  1
  Si  Si8  4  0.00000000  0.27525584  0.25000000  1
  Si  Si9  4  0.00000000  0.35279281  0.25000000  1
  Si  Si10  4  0.00000000  0.39482234  0.75000000  1
  Si  Si11  4  0.00000000  0.47840232  0.75000000  1
  Ag  Ag12  16  0.24590269  0.12620994  0.50023782  1
  Ag  Ag13  8  0.24094517  0.18833006  0.75000000  1
  Ag  Ag14  8  0.24694255  0.00000000  0.00000000  1
  Ag  Ag15  8  0.24812443  0.06373617  0.25000000  1
  Ag  Ag16  8  0.25000000  0.25000000  0.00000000  1
