# generated using pymatgen
data_U(MnPb)6
_symmetry_space_group_name_H-M   Immm
_cell_length_a   5.73187180
_cell_length_b   9.94610174
_cell_length_c   29.74779846
_cell_angle_alpha   90.00000000
_cell_angle_beta   90.00000000
_cell_angle_gamma   90.00000000
_symmetry_Int_Tables_number   71
_chemical_formula_structural   U(MnPb)6
_chemical_formula_sum   'U6 Mn36 Pb36'
_cell_volume   1695.91544818
_cell_formula_units_Z   6
loop_
 _symmetry_equiv_pos_site_id
 _symmetry_equiv_pos_as_xyz
  1  'x, y, z'
  2  '-x, -y, -z'
  3  '-x, -y, z'
  4  'x, y, -z'
  5  'x, -y, -z'
  6  '-x, y, z'
  7  '-x, y, -z'
  8  'x, -y, z'
  9  'x+1/2, y+1/2, z+1/2'
  10  '-x+1/2, -y+1/2, -z+1/2'
  11  '-x+1/2, -y+1/2, z+1/2'
  12  'x+1/2, y+1/2, -z+1/2'
  13  'x+1/2, -y+1/2, -z+1/2'
  14  '-x+1/2, y+1/2, z+1/2'
  15  '-x+1/2, y+1/2, -z+1/2'
  16  'x+1/2, -y+1/2, z+1/2'
loop_
 _atom_site_type_symbol
 _atom_site_label
 _atom_site_symmetry_multiplicity
 _atom_site_fract_x
 _atom_site_fract_y
 _atom_site_fract_z
 _atom_site_occupancy
  U  U0  4  0.00000000  0.00000000  0.33277124  1
  U  U1  2  0.00000000  0.50000000  0.00000000  1
  Mn  Mn2  16  0.24998972  0.24600271  0.41687094  1
  Mn  Mn3  8  0.00000000  0.25296158  0.16676316  1
  Mn  Mn4  8  0.25000000  0.25000000  0.25000000  1
  Mn  Mn5  4  0.00000000  0.24614379  0.50000000  1
  Pb  Pb6  8  0.00000000  0.32362148  0.33343130  1
  Pb  Pb7  4  0.00000000  0.00000000  0.11074642  1
  Pb  Pb8  4  0.00000000  0.00000000  0.22211722  1
  Pb  Pb9  4  0.00000000  0.00000000  0.44432076  1
  Pb  Pb10  4  0.00000000  0.17639456  0.00000000  1
  Pb  Pb11  4  0.00000000  0.50000000  0.11140852  1
  Pb  Pb12  4  0.00000000  0.50000000  0.22250611  1
  Pb  Pb13  4  0.00000000  0.50000000  0.44438761  1
