# generated using pymatgen
data_U(CoGe)6
_symmetry_space_group_name_H-M   Cmcm
_cell_length_a   7.86714179
_cell_length_b   69.76080098
_cell_length_c   5.03396328
_cell_angle_alpha   90.00000000
_cell_angle_beta   90.00000000
_cell_angle_gamma   90.00000000
_symmetry_Int_Tables_number   63
_chemical_formula_structural   U(CoGe)6
_chemical_formula_sum   'U16 Co96 Ge96'
_cell_volume   2762.73022400
_cell_formula_units_Z   16
loop_
 _symmetry_equiv_pos_site_id
 _symmetry_equiv_pos_as_xyz
  1  'x, y, z'
  2  '-x, -y, -z'
  3  '-x, -y, z+1/2'
  4  'x, y, -z+1/2'
  5  'x, -y, -z'
  6  '-x, y, z'
  7  '-x, y, -z+1/2'
  8  'x, -y, z+1/2'
  9  'x+1/2, y+1/2, z'
  10  '-x+1/2, -y+1/2, -z'
  11  '-x+1/2, -y+1/2, z+1/2'
  12  'x+1/2, y+1/2, -z+1/2'
  13  'x+1/2, -y+1/2, -z'
  14  '-x+1/2, y+1/2, z'
  15  '-x+1/2, y+1/2, -z+1/2'
  16  'x+1/2, -y+1/2, z+1/2'
loop_
 _atom_site_type_symbol
 _atom_site_label
 _atom_site_symmetry_multiplicity
 _atom_site_fract_x
 _atom_site_fract_y
 _atom_site_fract_z
 _atom_site_occupancy
  U  U0  4  0.00000000  0.03253056  0.25000000  1
  U  U1  4  0.00000000  0.28000425  0.25000000  1
  U  U2  4  0.00000000  0.34373651  0.75000000  1
  U  U3  4  0.00000000  0.40760442  0.25000000  1
  Co  Co4  16  0.24864695  0.06240275  0.00130963  1
  Co  Co5  16  0.24865025  0.37493205  0.50066906  1
  Co  Co6  16  0.24867925  0.31256270  0.50072917  1
  Co  Co7  8  0.24165840  0.03135336  0.75000000  1
  Co  Co8  8  0.24447620  0.40630619  0.75000000  1
  Co  Co9  8  0.24607455  0.28121526  0.75000000  1
  Co  Co10  8  0.24644581  0.00000000  0.00000000  1
  Co  Co11  8  0.24734087  0.34374860  0.25000000  1
  Co  Co12  8  0.25000000  0.25000000  0.00000000  1
  Ge  Ge13  8  0.15391531  0.15624468  0.25000000  1
  Ge  Ge14  8  0.15445644  0.21860461  0.75000000  1
  Ge  Ge15  8  0.15492303  0.09399397  0.75000000  1
  Ge  Ge16  8  0.15527566  0.46904268  0.75000000  1
  Ge  Ge17  4  0.00000000  0.01022500  0.75000000  1
  Ge  Ge18  4  0.00000000  0.05342307  0.75000000  1
  Ge  Ge19  4  0.00000000  0.07411834  0.25000000  1
  Ge  Ge20  4  0.00000000  0.11470703  0.25000000  1
  Ge  Ge21  4  0.00000000  0.13546858  0.75000000  1
  Ge  Ge22  4  0.00000000  0.17704885  0.75000000  1
  Ge  Ge23  4  0.00000000  0.19782799  0.25000000  1
  Ge  Ge24  4  0.00000000  0.23867218  0.25000000  1
  Ge  Ge25  4  0.00000000  0.25941865  0.75000000  1
  Ge  Ge26  4  0.00000000  0.30192032  0.75000000  1
  Ge  Ge27  4  0.00000000  0.32256783  0.25000000  1
  Ge  Ge28  4  0.00000000  0.36493508  0.25000000  1
  Ge  Ge29  4  0.00000000  0.38555708  0.75000000  1
  Ge  Ge30  4  0.00000000  0.42835340  0.75000000  1
  Ge  Ge31  4  0.00000000  0.44902442  0.25000000  1
  Ge  Ge32  4  0.00000000  0.48965639  0.25000000  1
