# generated using pymatgen
data_U(ZnPb)6
_symmetry_space_group_name_H-M   P-1
_cell_length_a   5.53929098
_cell_length_b   11.66999595
_cell_length_c   25.16650204
_cell_angle_alpha   92.97668513
_cell_angle_beta   93.65523170
_cell_angle_gamma   96.38549543
_symmetry_Int_Tables_number   2
_chemical_formula_structural   U(ZnPb)6
_chemical_formula_sum   'U5 Zn30 Pb30'
_cell_volume   1610.60964772
_cell_formula_units_Z   5
loop_
 _symmetry_equiv_pos_site_id
 _symmetry_equiv_pos_as_xyz
  1  'x, y, z'
  2  '-x, -y, -z'
loop_
 _atom_site_type_symbol
 _atom_site_label
 _atom_site_symmetry_multiplicity
 _atom_site_fract_x
 _atom_site_fract_y
 _atom_site_fract_z
 _atom_site_occupancy
  U  U0  2  0.19497590  0.40404356  0.39811832  1
  U  U1  2  0.39508662  0.30384258  0.79804567  1
  U  U2  1  0.00000000  0.50000000  0.00000000  1
  Zn  Zn3  2  0.01108434  0.25087238  0.49003415  1
  Zn  Zn4  2  0.05208480  0.90867705  0.18914415  1
  Zn  Zn5  2  0.09997421  0.44993723  0.69995105  1
  Zn  Zn6  2  0.10007061  0.95015900  0.70011385  1
  Zn  Zn7  2  0.14730890  0.49505215  0.21365121  1
  Zn  Zn8  2  0.18859395  0.65216838  0.90921691  1
  Zn  Zn9  2  0.21026450  0.15149722  0.89003632  1
  Zn  Zn10  2  0.25085396  0.35772483  0.09019694  1
  Zn  Zn11  2  0.25268076  0.80832202  0.58902275  1
  Zn  Zn12  2  0.34706580  0.39517584  0.61348079  1
  Zn  Zn13  2  0.35096810  0.83844408  0.10944348  1
  Zn  Zn14  2  0.39991268  0.05003307  0.29993235  1
  Zn  Zn15  2  0.40005041  0.55006909  0.30004265  1
  Zn  Zn16  2  0.44952598  0.25983664  0.48991734  1
  Zn  Zn17  2  0.45410959  0.70824187  0.98858425  1
  Pb  Pb18  2  0.00220917  0.20481448  0.00079909  1
  Pb  Pb19  2  0.06145393  0.63295929  0.13088332  1
  Pb  Pb20  2  0.07740214  0.13493675  0.13447227  1
  Pb  Pb21  2  0.11807244  0.27150434  0.26951933  1
  Pb  Pb22  2  0.14487531  0.76266115  0.26726690  1
  Pb  Pb23  2  0.20211964  0.69226240  0.40165599  1
  Pb  Pb24  2  0.20659159  0.10675239  0.39975268  1
  Pb  Pb25  2  0.26158749  0.53308220  0.53050302  1
  Pb  Pb26  2  0.27751975  0.03497842  0.53460966  1
  Pb  Pb27  2  0.31814375  0.17149717  0.66946682  1
  Pb  Pb28  2  0.34491284  0.66241302  0.66720689  1
  Pb  Pb29  2  0.40217001  0.59209786  0.80155484  1
  Pb  Pb30  2  0.40682569  0.00699060  0.79985659  1
  Pb  Pb31  2  0.46006749  0.43393658  0.93018496  1
  Pb  Pb32  2  0.47694792  0.93614583  0.93552436  1
