# generated using pymatgen
data_U(SiTc)6
_symmetry_space_group_name_H-M   Cmmm
_cell_length_a   5.31887610
_cell_length_b   46.21369852
_cell_length_c   7.91682566
_cell_angle_alpha   90.00000000
_cell_angle_beta   90.00000000
_cell_angle_gamma   90.00000000
_symmetry_Int_Tables_number   65
_chemical_formula_structural   U(SiTc)6
_chemical_formula_sum   'U10 Si60 Tc60'
_cell_volume   1945.99482855
_cell_formula_units_Z   10
loop_
 _symmetry_equiv_pos_site_id
 _symmetry_equiv_pos_as_xyz
  1  'x, y, z'
  2  '-x, -y, -z'
  3  '-x, -y, z'
  4  'x, y, -z'
  5  'x, -y, -z'
  6  '-x, y, z'
  7  '-x, y, -z'
  8  'x, -y, z'
  9  'x+1/2, y+1/2, z'
  10  '-x+1/2, -y+1/2, -z'
  11  '-x+1/2, -y+1/2, z'
  12  'x+1/2, y+1/2, -z'
  13  'x+1/2, -y+1/2, -z'
  14  '-x+1/2, y+1/2, z'
  15  '-x+1/2, y+1/2, -z'
  16  'x+1/2, -y+1/2, z'
loop_
 _atom_site_type_symbol
 _atom_site_label
 _atom_site_symmetry_multiplicity
 _atom_site_fract_x
 _atom_site_fract_y
 _atom_site_fract_z
 _atom_site_occupancy
  U  U0  4  0.00000000  0.10013289  0.00000000  1
  U  U1  4  0.00000000  0.30013258  0.50000000  1
  U  U2  2  0.00000000  0.50000000  0.00000000  1
  Tc  Tc3  16  0.24997662  0.05001640  0.25438809  1
  Tc  Tc4  16  0.24999294  0.34999985  0.24999786  1
  Si  Si5  8  0.00000000  0.09960656  0.34142788  1
  Tc  Tc6  8  0.00000000  0.20004546  0.24659611  1
  Si  Si7  8  0.00000000  0.29962194  0.15853667  1
  Tc  Tc8  8  0.00000000  0.40004844  0.25340827  1
  Tc  Tc9  8  0.25000000  0.25000000  0.24551779  1
  Tc  Tc10  4  0.00000000  0.00000000  0.25434481  1
  Si  Si11  4  0.00000000  0.03307584  0.50000000  1
  Si  Si12  4  0.00000000  0.03320441  0.00000000  1
  Si  Si13  4  0.00000000  0.16643301  0.00000000  1
  Si  Si14  4  0.00000000  0.16737726  0.50000000  1
  Si  Si15  4  0.00000000  0.23309895  0.50000000  1
  Si  Si16  4  0.00000000  0.23311630  0.00000000  1
  Si  Si17  4  0.00000000  0.36642773  0.50000000  1
  Si  Si18  4  0.00000000  0.36737634  0.00000000  1
  Si  Si19  4  0.00000000  0.43308643  0.50000000  1
  Si  Si20  4  0.00000000  0.43308747  0.00000000  1
  Si  Si21  4  0.00000000  0.50000000  0.34192310  1
