# generated using pymatgen
data_U(ReSn)6
_symmetry_space_group_name_H-M   C2/m
_cell_length_a   46.97086697
_cell_length_b   5.38447626
_cell_length_c   9.84358301
_cell_angle_alpha   90.00000000
_cell_angle_beta   91.62511332
_cell_angle_gamma   90.00000000
_symmetry_Int_Tables_number   12
_chemical_formula_structural   U(ReSn)6
_chemical_formula_sum   'U10 Re60 Sn60'
_cell_volume   2488.57385548
_cell_formula_units_Z   10
loop_
 _symmetry_equiv_pos_site_id
 _symmetry_equiv_pos_as_xyz
  1  'x, y, z'
  2  '-x, -y, -z'
  3  '-x, y, -z'
  4  'x, -y, z'
  5  'x+1/2, y+1/2, z'
  6  '-x+1/2, -y+1/2, -z'
  7  '-x+1/2, y+1/2, -z'
  8  'x+1/2, -y+1/2, z'
loop_
 _atom_site_type_symbol
 _atom_site_label
 _atom_site_symmetry_multiplicity
 _atom_site_fract_x
 _atom_site_fract_y
 _atom_site_fract_z
 _atom_site_occupancy
  U  U0  4  0.10080816  0.50000000  0.00004740  1
  U  U1  4  0.19936803  0.00000000  0.49990559  1
  U  U2  2  0.00000000  0.00000000  0.00000000  1
  Re  Re3  8  0.04984753  0.24679051  0.23599228  1
  Re  Re4  8  0.05003896  0.24972408  0.76394425  1
  Re  Re5  8  0.14999558  0.25023077  0.75001211  1
  Re  Re6  8  0.14999790  0.25022278  0.24999201  1
  Re  Re7  8  0.24988897  0.24851620  0.73570704  1
  Re  Re8  4  0.00022680  0.50000000  0.23583479  1
  Re  Re9  4  0.10011323  0.00000000  0.76732134  1
  Re  Re10  4  0.10060233  0.00000000  0.23309819  1
  Re  Re11  4  0.19939315  0.50000000  0.26696075  1
  Re  Re12  4  0.19988143  0.50000000  0.73265923  1
  Sn  Sn13  4  0.00002363  0.00000000  0.66982710  1
  Sn  Sn14  4  0.03307892  0.50000000  0.50002549  1
  Sn  Sn15  4  0.03353610  0.50000000  0.99992413  1
  Sn  Sn16  4  0.06630153  0.00000000  0.50021184  1
  Sn  Sn17  4  0.06724366  0.00000000  0.99988975  1
  Sn  Sn18  4  0.09944264  0.50000000  0.33014657  1
  Sn  Sn19  4  0.09947687  0.50000000  0.67020817  1
  Sn  Sn20  4  0.13140514  0.00000000  0.50025867  1
  Sn  Sn21  4  0.13573556  0.00000000  0.99978214  1
  Sn  Sn22  4  0.16432840  0.50000000  0.50020576  1
  Sn  Sn23  4  0.16862732  0.50000000  0.99973977  1
  Sn  Sn24  4  0.20049163  0.00000000  0.82977270  1
  Sn  Sn25  4  0.20053255  0.00000000  0.16986905  1
  Sn  Sn26  4  0.23297653  0.50000000  0.50005429  1
  Sn  Sn27  4  0.23360136  0.50000000  0.99981328  1
