# generated using pymatgen
data_U(ReGe)6
_symmetry_space_group_name_H-M   Cmcm
_cell_length_a   8.85484366
_cell_length_b   37.03029598
_cell_length_c   5.31807361
_cell_angle_alpha   90.00000000
_cell_angle_beta   90.00000000
_cell_angle_gamma   90.00000000
_symmetry_Int_Tables_number   63
_chemical_formula_structural   U(ReGe)6
_chemical_formula_sum   'U8 Re48 Ge48'
_cell_volume   1743.78294133
_cell_formula_units_Z   8
loop_
 _symmetry_equiv_pos_site_id
 _symmetry_equiv_pos_as_xyz
  1  'x, y, z'
  2  '-x, -y, -z'
  3  '-x, -y, z+1/2'
  4  'x, y, -z+1/2'
  5  'x, -y, -z'
  6  '-x, y, z'
  7  '-x, y, -z+1/2'
  8  'x, -y, z+1/2'
  9  'x+1/2, y+1/2, z'
  10  '-x+1/2, -y+1/2, -z'
  11  '-x+1/2, -y+1/2, z+1/2'
  12  'x+1/2, y+1/2, -z+1/2'
  13  'x+1/2, -y+1/2, -z'
  14  '-x+1/2, y+1/2, z'
  15  '-x+1/2, y+1/2, -z+1/2'
  16  'x+1/2, -y+1/2, z+1/2'
loop_
 _atom_site_type_symbol
 _atom_site_label
 _atom_site_symmetry_multiplicity
 _atom_site_fract_x
 _atom_site_fract_y
 _atom_site_fract_z
 _atom_site_occupancy
  U  U0  4  0.00000000  0.31115179  0.75000000  1
  U  U1  4  0.00000000  0.43664827  0.25000000  1
  Re  Re2  16  0.24916711  0.12542806  0.50159770  1
  Re  Re3  8  0.24651277  0.68805886  0.75000000  1
  Re  Re4  8  0.24832458  0.50000000  0.00000000  1
  Re  Re5  8  0.24938453  0.06337398  0.25000000  1
  Re  Re6  8  0.25000000  0.25000000  0.00000000  1
  Ge  Ge7  8  0.17001291  0.18631486  0.25000000  1
  Ge  Ge8  8  0.17046412  0.05845782  0.75000000  1
  Ge  Ge9  4  0.00000000  0.02217319  0.25000000  1
  Ge  Ge10  4  0.00000000  0.10214036  0.25000000  1
  Ge  Ge11  4  0.00000000  0.14363192  0.75000000  1
  Ge  Ge12  4  0.00000000  0.22739533  0.75000000  1
  Ge  Ge13  4  0.00000000  0.27072321  0.25000000  1
  Ge  Ge14  4  0.00000000  0.35370319  0.25000000  1
  Ge  Ge15  4  0.00000000  0.39486162  0.75000000  1
  Ge  Ge16  4  0.00000000  0.47854230  0.75000000  1
