# generated using pymatgen
data_U(CuSn)6
_symmetry_space_group_name_H-M   Cmcm
_cell_length_a   9.11981953
_cell_length_b   76.81100982
_cell_length_c   5.52675413
_cell_angle_alpha   90.00000000
_cell_angle_beta   90.00000000
_cell_angle_gamma   90.00000000
_symmetry_Int_Tables_number   63
_chemical_formula_structural   U(CuSn)6
_chemical_formula_sum   'U16 Cu96 Sn96'
_cell_volume   3871.50534756
_cell_formula_units_Z   16
loop_
 _symmetry_equiv_pos_site_id
 _symmetry_equiv_pos_as_xyz
  1  'x, y, z'
  2  '-x, -y, -z'
  3  '-x, -y, z+1/2'
  4  'x, y, -z+1/2'
  5  'x, -y, -z'
  6  '-x, y, z'
  7  '-x, y, -z+1/2'
  8  'x, -y, z+1/2'
  9  'x+1/2, y+1/2, z'
  10  '-x+1/2, -y+1/2, -z'
  11  '-x+1/2, -y+1/2, z+1/2'
  12  'x+1/2, y+1/2, -z+1/2'
  13  'x+1/2, -y+1/2, -z'
  14  '-x+1/2, y+1/2, z'
  15  '-x+1/2, y+1/2, -z+1/2'
  16  'x+1/2, -y+1/2, z+1/2'
loop_
 _atom_site_type_symbol
 _atom_site_label
 _atom_site_symmetry_multiplicity
 _atom_site_fract_x
 _atom_site_fract_y
 _atom_site_fract_z
 _atom_site_occupancy
  U  U0  4  0.00000000  0.03116071  0.25000000  1
  U  U1  4  0.00000000  0.28131145  0.25000000  1
  U  U2  4  0.00000000  0.34380032  0.75000000  1
  U  U3  4  0.00000000  0.40624484  0.25000000  1
  Cu  Cu4  16  0.24412709  0.06229558  0.00139632  1
  Cu  Cu5  16  0.24933768  0.18752970  0.50013901  1
  Cu  Cu6  16  0.24964473  0.12501050  0.00000457  1
  Cu  Cu7  8  0.23927193  0.03127180  0.75000000  1
  Cu  Cu8  8  0.23985937  0.00000000  0.00000000  1
  Cu  Cu9  8  0.24859134  0.21883717  0.25000000  1
  Cu  Cu10  8  0.24929196  0.15624671  0.75000000  1
  Cu  Cu11  8  0.24990438  0.40629615  0.75000000  1
  Cu  Cu12  8  0.25000000  0.25000000  0.00000000  1
  Sn  Sn13  8  0.16782547  0.84371850  0.75000000  1
  Sn  Sn14  8  0.16827836  0.21874121  0.75000000  1
  Sn  Sn15  8  0.16856468  0.46899782  0.75000000  1
  Sn  Sn16  8  0.16875613  0.09390055  0.75000000  1
  Sn  Sn17  4  0.00000000  0.01045484  0.75000000  1
  Sn  Sn18  4  0.00000000  0.05211137  0.75000000  1
  Sn  Sn19  4  0.00000000  0.07299878  0.25000000  1
  Sn  Sn20  4  0.00000000  0.11459920  0.25000000  1
  Sn  Sn21  4  0.00000000  0.13539258  0.75000000  1
  Sn  Sn22  4  0.00000000  0.17718127  0.75000000  1
  Sn  Sn23  4  0.00000000  0.19797374  0.25000000  1
  Sn  Sn24  4  0.00000000  0.23994981  0.25000000  1
  Sn  Sn25  4  0.00000000  0.26086746  0.75000000  1
  Sn  Sn26  4  0.00000000  0.30216149  0.75000000  1
  Sn  Sn27  4  0.00000000  0.32290771  0.25000000  1
  Sn  Sn28  4  0.00000000  0.36462843  0.25000000  1
  Sn  Sn29  4  0.00000000  0.38544819  0.75000000  1
  Sn  Sn30  4  0.00000000  0.42686605  0.75000000  1
  Sn  Sn31  4  0.00000000  0.44775094  0.25000000  1
  Sn  Sn32  4  0.00000000  0.48954802  0.25000000  1
