# generated using pymatgen
data_U(VGe)6
_symmetry_space_group_name_H-M   Cmcm
_cell_length_a   8.44575692
_cell_length_b   36.40371992
_cell_length_c   5.25064009
_cell_angle_alpha   90.00000000
_cell_angle_beta   90.00000000
_cell_angle_gamma   90.00000000
_symmetry_Int_Tables_number   63
_chemical_formula_structural   U(VGe)6
_chemical_formula_sum   'U8 V48 Ge48'
_cell_volume   1614.34588861
_cell_formula_units_Z   8
loop_
 _symmetry_equiv_pos_site_id
 _symmetry_equiv_pos_as_xyz
  1  'x, y, z'
  2  '-x, -y, -z'
  3  '-x, -y, z+1/2'
  4  'x, y, -z+1/2'
  5  'x, -y, -z'
  6  '-x, y, z'
  7  '-x, y, -z+1/2'
  8  'x, -y, z+1/2'
  9  'x+1/2, y+1/2, z'
  10  '-x+1/2, -y+1/2, -z'
  11  '-x+1/2, -y+1/2, z+1/2'
  12  'x+1/2, y+1/2, -z+1/2'
  13  'x+1/2, -y+1/2, -z'
  14  '-x+1/2, y+1/2, z'
  15  '-x+1/2, y+1/2, -z+1/2'
  16  'x+1/2, -y+1/2, z+1/2'
loop_
 _atom_site_type_symbol
 _atom_site_label
 _atom_site_symmetry_multiplicity
 _atom_site_fract_x
 _atom_site_fract_y
 _atom_site_fract_z
 _atom_site_occupancy
  U  U0  4  0.00000000  0.06276524  0.75000000  1
  U  U1  4  0.00000000  0.18835638  0.25000000  1
  V  V2  16  0.24831791  0.37514271  0.00042893  1
  V  V3  8  0.24813104  0.18746630  0.75000000  1
  V  V4  8  0.24885270  0.06251790  0.25000000  1
  V  V5  8  0.24992074  0.50000000  0.00000000  1
  V  V6  8  0.25000000  0.25000000  0.00000000  1
  Ge  Ge7  8  0.15997245  0.31289846  0.75000000  1
  Ge  Ge8  8  0.16486548  0.43874451  0.25000000  1
  Ge  Ge9  4  0.00000000  0.02099469  0.25000000  1
  Ge  Ge10  4  0.00000000  0.10494159  0.25000000  1
  Ge  Ge11  4  0.00000000  0.14625545  0.75000000  1
  Ge  Ge12  4  0.00000000  0.22960408  0.75000000  1
  Ge  Ge13  4  0.00000000  0.27239576  0.25000000  1
  Ge  Ge14  4  0.00000000  0.35358358  0.25000000  1
  Ge  Ge15  4  0.00000000  0.39717182  0.75000000  1
  Ge  Ge16  4  0.00000000  0.47811364  0.75000000  1
