# generated using pymatgen
data_Hf6UGe6
_symmetry_space_group_name_H-M   Cmcm
_cell_length_a   8.41056472
_cell_length_b   83.13635574
_cell_length_c   6.00936569
_cell_angle_alpha   90.00000000
_cell_angle_beta   90.00000000
_cell_angle_gamma   90.00000000
_symmetry_Int_Tables_number   63
_chemical_formula_structural   Hf6UGe6
_chemical_formula_sum   'Hf96 U16 Ge96'
_cell_volume   4201.89091453
_cell_formula_units_Z   16
loop_
 _symmetry_equiv_pos_site_id
 _symmetry_equiv_pos_as_xyz
  1  'x, y, z'
  2  '-x, -y, -z'
  3  '-x, -y, z+1/2'
  4  'x, y, -z+1/2'
  5  'x, -y, -z'
  6  '-x, y, z'
  7  '-x, y, -z+1/2'
  8  'x, -y, z+1/2'
  9  'x+1/2, y+1/2, z'
  10  '-x+1/2, -y+1/2, -z'
  11  '-x+1/2, -y+1/2, z+1/2'
  12  'x+1/2, y+1/2, -z+1/2'
  13  'x+1/2, -y+1/2, -z'
  14  '-x+1/2, y+1/2, z'
  15  '-x+1/2, y+1/2, -z+1/2'
  16  'x+1/2, -y+1/2, z+1/2'
loop_
 _atom_site_type_symbol
 _atom_site_label
 _atom_site_symmetry_multiplicity
 _atom_site_fract_x
 _atom_site_fract_y
 _atom_site_fract_z
 _atom_site_occupancy
  Hf  Hf0  16  0.24676715  0.56243469  0.50005165  1
  Hf  Hf1  16  0.24765666  0.31244404  0.00021505  1
  Hf  Hf2  16  0.24766816  0.37502278  0.00012540  1
  Hf  Hf3  8  0.24105379  0.28113050  0.75000000  1
  Hf  Hf4  8  0.24454604  0.40627900  0.75000000  1
  Hf  Hf5  8  0.24741419  0.65625794  0.75000000  1
  Hf  Hf6  8  0.24790959  0.50000000  0.00000000  1
  Hf  Hf7  8  0.24992135  0.96878874  0.25000000  1
  Hf  Hf8  8  0.25000000  0.25000000  0.00000000  1
  U  U9  4  0.00000000  0.09365026  0.75000000  1
  U  U10  4  0.00000000  0.15620712  0.25000000  1
  U  U11  4  0.00000000  0.21856267  0.75000000  1
  U  U12  4  0.00000000  0.46859882  0.75000000  1
  Ge  Ge13  8  0.16664637  0.34376192  0.75000000  1
  Ge  Ge14  8  0.16701275  0.28118459  0.25000000  1
  Ge  Ge15  8  0.16705797  0.40627119  0.25000000  1
  Ge  Ge16  8  0.16769704  0.03122655  0.25000000  1
  Ge  Ge17  4  0.00000000  0.01039799  0.75000000  1
  Ge  Ge18  4  0.00000000  0.05340230  0.75000000  1
  Ge  Ge19  4  0.00000000  0.07404595  0.25000000  1
  Ge  Ge20  4  0.00000000  0.11457826  0.25000000  1
  Ge  Ge21  4  0.00000000  0.13541447  0.75000000  1
  Ge  Ge22  4  0.00000000  0.17708311  0.75000000  1
  Ge  Ge23  4  0.00000000  0.19796905  0.25000000  1
  Ge  Ge24  4  0.00000000  0.23803929  0.25000000  1
  Ge  Ge25  4  0.00000000  0.25881386  0.75000000  1
  Ge  Ge26  4  0.00000000  0.30225032  0.75000000  1
  Ge  Ge27  4  0.00000000  0.32287958  0.25000000  1
  Ge  Ge28  4  0.00000000  0.36461056  0.25000000  1
  Ge  Ge29  4  0.00000000  0.38530059  0.75000000  1
  Ge  Ge30  4  0.00000000  0.42782542  0.75000000  1
  Ge  Ge31  4  0.00000000  0.44868604  0.25000000  1
  Ge  Ge32  4  0.00000000  0.48957993  0.25000000  1
