# generated using pymatgen
data_U(MoPb)6
_symmetry_space_group_name_H-M   Cmcm
_cell_length_a   10.28902173
_cell_length_b   77.20079334
_cell_length_c   5.53474114
_cell_angle_alpha   90.00000000
_cell_angle_beta   90.00000000
_cell_angle_gamma   90.00000000
_symmetry_Int_Tables_number   63
_chemical_formula_structural   U(MoPb)6
_chemical_formula_sum   'U16 Mo96 Pb96'
_cell_volume   4396.35912528
_cell_formula_units_Z   16
loop_
 _symmetry_equiv_pos_site_id
 _symmetry_equiv_pos_as_xyz
  1  'x, y, z'
  2  '-x, -y, -z'
  3  '-x, -y, z+1/2'
  4  'x, y, -z+1/2'
  5  'x, -y, -z'
  6  '-x, y, z'
  7  '-x, y, -z+1/2'
  8  'x, -y, z+1/2'
  9  'x+1/2, y+1/2, z'
  10  '-x+1/2, -y+1/2, -z'
  11  '-x+1/2, -y+1/2, z+1/2'
  12  'x+1/2, y+1/2, -z+1/2'
  13  'x+1/2, -y+1/2, -z'
  14  '-x+1/2, y+1/2, z'
  15  '-x+1/2, y+1/2, -z+1/2'
  16  'x+1/2, -y+1/2, z+1/2'
loop_
 _atom_site_type_symbol
 _atom_site_label
 _atom_site_symmetry_multiplicity
 _atom_site_fract_x
 _atom_site_fract_y
 _atom_site_fract_z
 _atom_site_occupancy
  U  U0  4  0.00000000  0.09373528  0.75000000  1
  U  U1  4  0.00000000  0.15621894  0.25000000  1
  U  U2  4  0.00000000  0.21895885  0.75000000  1
  U  U3  4  0.00000000  0.46826108  0.75000000  1
  Mo  Mo4  16  0.23871388  0.12500447  0.00087027  1
  Mo  Mo5  16  0.23896013  0.18747888  0.00035502  1
  Mo  Mo6  16  0.24444063  0.43794427  0.50711018  1
  Mo  Mo7  8  0.23199652  0.46843978  0.25000000  1
  Mo  Mo8  8  0.23372443  0.50000000  0.00000000  1
  Mo  Mo9  8  0.23752223  0.21885438  0.25000000  1
  Mo  Mo10  8  0.23758978  0.09371129  0.25000000  1
  Mo  Mo11  8  0.23870987  0.15626417  0.75000000  1
  Mo  Mo12  8  0.25000000  0.25000000  0.00000000  1
  Pb  Pb13  8  0.17628059  0.34373546  0.75000000  1
  Pb  Pb14  8  0.17702026  0.28144536  0.25000000  1
  Pb  Pb15  8  0.17770266  0.03070398  0.25000000  1
  Pb  Pb16  8  0.17808990  0.40613494  0.25000000  1
  Pb  Pb17  4  0.00000000  0.01021094  0.75000000  1
  Pb  Pb18  4  0.00000000  0.05152341  0.75000000  1
  Pb  Pb19  4  0.00000000  0.07219749  0.25000000  1
  Pb  Pb20  4  0.00000000  0.11434823  0.25000000  1
  Pb  Pb21  4  0.00000000  0.13541299  0.75000000  1
  Pb  Pb22  4  0.00000000  0.17714988  0.75000000  1
  Pb  Pb23  4  0.00000000  0.19800938  0.25000000  1
  Pb  Pb24  4  0.00000000  0.24009065  0.25000000  1
  Pb  Pb25  4  0.00000000  0.26092137  0.75000000  1
  Pb  Pb26  4  0.00000000  0.30223252  0.75000000  1
  Pb  Pb27  4  0.00000000  0.32294576  0.25000000  1
  Pb  Pb28  4  0.00000000  0.36453846  0.25000000  1
  Pb  Pb29  4  0.00000000  0.38517117  0.75000000  1
  Pb  Pb30  4  0.00000000  0.42618980  0.75000000  1
  Pb  Pb31  4  0.00000000  0.44694925  0.25000000  1
  Pb  Pb32  4  0.00000000  0.48944691  0.25000000  1
