# generated using pymatgen
data_U(ZnGe)6
_symmetry_space_group_name_H-M   Cmcm
_cell_length_a   8.50622392
_cell_length_b   39.69400865
_cell_length_c   5.28728038
_cell_angle_alpha   90.00000000
_cell_angle_beta   90.00000000
_cell_angle_gamma   90.00000000
_symmetry_Int_Tables_number   63
_chemical_formula_structural   U(ZnGe)6
_chemical_formula_sum   'U8 Zn48 Ge48'
_cell_volume   1785.22973835
_cell_formula_units_Z   8
loop_
 _symmetry_equiv_pos_site_id
 _symmetry_equiv_pos_as_xyz
  1  'x, y, z'
  2  '-x, -y, -z'
  3  '-x, -y, z+1/2'
  4  'x, y, -z+1/2'
  5  'x, -y, -z'
  6  '-x, y, z'
  7  '-x, y, -z+1/2'
  8  'x, -y, z+1/2'
  9  'x+1/2, y+1/2, z'
  10  '-x+1/2, -y+1/2, -z'
  11  '-x+1/2, -y+1/2, z+1/2'
  12  'x+1/2, y+1/2, -z+1/2'
  13  'x+1/2, -y+1/2, -z'
  14  '-x+1/2, y+1/2, z'
  15  '-x+1/2, y+1/2, -z+1/2'
  16  'x+1/2, -y+1/2, z+1/2'
loop_
 _atom_site_type_symbol
 _atom_site_label
 _atom_site_symmetry_multiplicity
 _atom_site_fract_x
 _atom_site_fract_y
 _atom_site_fract_z
 _atom_site_occupancy
  U  U0  4  0.00000000  0.31424356  0.25000000  1
  U  U1  4  0.00000000  0.43736168  0.75000000  1
  Zn  Zn2  16  0.24195209  0.37440876  0.00041612  1
  Zn  Zn3  8  0.23342727  0.43581065  0.25000000  1
  Zn  Zn4  8  0.23726618  0.50000000  0.00000000  1
  Zn  Zn5  8  0.24327276  0.31207667  0.75000000  1
  Zn  Zn6  8  0.25000000  0.25000000  0.00000000  1
  Ge  Ge7  8  0.14371076  0.18274675  0.75000000  1
  Ge  Ge8  8  0.14380757  0.05547933  0.25000000  1
  Ge  Ge9  4  0.00000000  0.03044685  0.75000000  1
  Ge  Ge10  4  0.00000000  0.10458566  0.75000000  1
  Ge  Ge11  4  0.00000000  0.14593402  0.25000000  1
  Ge  Ge12  4  0.00000000  0.23958641  0.25000000  1
  Ge  Ge13  4  0.00000000  0.27565877  0.75000000  1
  Ge  Ge14  4  0.00000000  0.35495378  0.75000000  1
  Ge  Ge15  4  0.00000000  0.39609045  0.25000000  1
  Ge  Ge16  4  0.00000000  0.47866917  0.25000000  1
