# generated using pymatgen
data_U(SnMo)6
_symmetry_space_group_name_H-M   Cmcm
_cell_length_a   9.55440949
_cell_length_b   77.52680279
_cell_length_c   5.58869703
_cell_angle_alpha   90.00000000
_cell_angle_beta   90.00000000
_cell_angle_gamma   90.00000000
_symmetry_Int_Tables_number   63
_chemical_formula_structural   U(SnMo)6
_chemical_formula_sum   'U16 Sn96 Mo96'
_cell_volume   4139.67542580
_cell_formula_units_Z   16
loop_
 _symmetry_equiv_pos_site_id
 _symmetry_equiv_pos_as_xyz
  1  'x, y, z'
  2  '-x, -y, -z'
  3  '-x, -y, z+1/2'
  4  'x, y, -z+1/2'
  5  'x, -y, -z'
  6  '-x, y, z'
  7  '-x, y, -z+1/2'
  8  'x, -y, z+1/2'
  9  'x+1/2, y+1/2, z'
  10  '-x+1/2, -y+1/2, -z'
  11  '-x+1/2, -y+1/2, z+1/2'
  12  'x+1/2, y+1/2, -z+1/2'
  13  'x+1/2, -y+1/2, -z'
  14  '-x+1/2, y+1/2, z'
  15  '-x+1/2, y+1/2, -z+1/2'
  16  'x+1/2, -y+1/2, z+1/2'
loop_
 _atom_site_type_symbol
 _atom_site_label
 _atom_site_symmetry_multiplicity
 _atom_site_fract_x
 _atom_site_fract_y
 _atom_site_fract_z
 _atom_site_occupancy
  U  U0  4  0.00000000  0.09388444  0.25000000  1
  U  U1  4  0.00000000  0.15623609  0.75000000  1
  U  U2  4  0.00000000  0.21848462  0.25000000  1
  U  U3  4  0.00000000  0.46871305  0.25000000  1
  Sn  Sn4  8  0.17360711  0.28119243  0.75000000  1
  Sn  Sn5  8  0.17387213  0.40629288  0.75000000  1
  Sn  Sn6  8  0.17397207  0.34374223  0.25000000  1
  Sn  Sn7  8  0.17613612  0.03117620  0.75000000  1
  Sn  Sn8  4  0.00000000  0.01040939  0.25000000  1
  Sn  Sn9  4  0.00000000  0.05249472  0.25000000  1
  Sn  Sn10  4  0.00000000  0.07331034  0.75000000  1
  Sn  Sn11  4  0.00000000  0.11460596  0.75000000  1
  Sn  Sn12  4  0.00000000  0.13545053  0.25000000  1
  Sn  Sn13  4  0.00000000  0.17701652  0.25000000  1
  Sn  Sn14  4  0.00000000  0.19789508  0.75000000  1
  Sn  Sn15  4  0.00000000  0.23894523  0.75000000  1
  Sn  Sn16  4  0.00000000  0.25976508  0.25000000  1
  Sn  Sn17  4  0.00000000  0.30210594  0.25000000  1
  Sn  Sn18  4  0.00000000  0.32287498  0.75000000  1
  Sn  Sn19  4  0.00000000  0.36460335  0.75000000  1
  Sn  Sn20  4  0.00000000  0.38542781  0.25000000  1
  Sn  Sn21  4  0.00000000  0.42733376  0.25000000  1
  Sn  Sn22  4  0.00000000  0.44814837  0.75000000  1
  Sn  Sn23  4  0.00000000  0.48957655  0.75000000  1
  Mo  Mo24  16  0.24897423  0.43759054  0.00090983  1
  Mo  Mo25  16  0.24939320  0.37501142  0.50013628  1
  Mo  Mo26  16  0.24945185  0.31247721  0.50024575  1
  Mo  Mo27  8  0.24775512  0.46874856  0.75000000  1
  Mo  Mo28  8  0.24844771  0.50000000  0.00000000  1
  Mo  Mo29  8  0.24904585  0.28124729  0.25000000  1
  Mo  Mo30  8  0.24919543  0.65625064  0.25000000  1
  Mo  Mo31  8  0.24968146  0.09376616  0.75000000  1
  Mo  Mo32  8  0.25000000  0.25000000  0.00000000  1
