# generated using pymatgen
data_Zr6UGe6
_symmetry_space_group_name_H-M   Cmcm
_cell_length_a   8.92240864
_cell_length_b   20.53899427
_cell_length_c   5.96418283
_cell_angle_alpha   90.00000000
_cell_angle_beta   90.00000000
_cell_angle_gamma   90.00000000
_symmetry_Int_Tables_number   63
_chemical_formula_structural   Zr6UGe6
_chemical_formula_sum   'Zr24 U4 Ge24'
_cell_volume   1092.98004124
_cell_formula_units_Z   4
loop_
 _symmetry_equiv_pos_site_id
 _symmetry_equiv_pos_as_xyz
  1  'x, y, z'
  2  '-x, -y, -z'
  3  '-x, -y, z+1/2'
  4  'x, y, -z+1/2'
  5  'x, -y, -z'
  6  '-x, y, z'
  7  '-x, y, -z+1/2'
  8  'x, -y, z+1/2'
  9  'x+1/2, y+1/2, z'
  10  '-x+1/2, -y+1/2, -z'
  11  '-x+1/2, -y+1/2, z+1/2'
  12  'x+1/2, y+1/2, -z+1/2'
  13  'x+1/2, -y+1/2, -z'
  14  '-x+1/2, y+1/2, z'
  15  '-x+1/2, y+1/2, -z+1/2'
  16  'x+1/2, -y+1/2, z+1/2'
loop_
 _atom_site_type_symbol
 _atom_site_label
 _atom_site_symmetry_multiplicity
 _atom_site_fract_x
 _atom_site_fract_y
 _atom_site_fract_z
 _atom_site_occupancy
  Zr  Zr0  8  0.22769815  0.37524395  0.25000000  1
  Zr  Zr1  8  0.24066927  0.00000000  0.00000000  1
  Zr  Zr2  8  0.25000000  0.25000000  0.00000000  1
  U  U3  4  0.00000000  0.12577975  0.25000000  1
  Ge  Ge4  8  0.17706408  0.37506907  0.75000000  1
  Ge  Ge5  4  0.00000000  0.04918192  0.75000000  1
  Ge  Ge6  4  0.00000000  0.19793768  0.75000000  1
  Ge  Ge7  4  0.00000000  0.28100244  0.25000000  1
  Ge  Ge8  4  0.00000000  0.46851712  0.25000000  1
