# generated using pymatgen
data_U(FeGe)6
_symmetry_space_group_name_H-M   Cmcm
_cell_length_a   8.08151400
_cell_length_b   35.16348734
_cell_length_c   5.08749614
_cell_angle_alpha   90.00000000
_cell_angle_beta   90.00000000
_cell_angle_gamma   90.00000000
_symmetry_Int_Tables_number   63
_chemical_formula_structural   U(FeGe)6
_chemical_formula_sum   'U8 Fe48 Ge48'
_cell_volume   1445.73522133
_cell_formula_units_Z   8
loop_
 _symmetry_equiv_pos_site_id
 _symmetry_equiv_pos_as_xyz
  1  'x, y, z'
  2  '-x, -y, -z'
  3  '-x, -y, z+1/2'
  4  'x, y, -z+1/2'
  5  'x, -y, -z'
  6  '-x, y, z'
  7  '-x, y, -z+1/2'
  8  'x, -y, z+1/2'
  9  'x+1/2, y+1/2, z'
  10  '-x+1/2, -y+1/2, -z'
  11  '-x+1/2, -y+1/2, z+1/2'
  12  'x+1/2, y+1/2, -z+1/2'
  13  'x+1/2, -y+1/2, -z'
  14  '-x+1/2, y+1/2, z'
  15  '-x+1/2, y+1/2, -z+1/2'
  16  'x+1/2, -y+1/2, z+1/2'
loop_
 _atom_site_type_symbol
 _atom_site_label
 _atom_site_symmetry_multiplicity
 _atom_site_fract_x
 _atom_site_fract_y
 _atom_site_fract_z
 _atom_site_occupancy
  U  U0  4  0.00000000  0.30824961  0.25000000  1
  U  U1  4  0.00000000  0.43527002  0.75000000  1
  Fe  Fe2  16  0.24538353  0.37596602  0.50641934  1
  Fe  Fe3  8  0.24169220  0.31197344  0.75000000  1
  Fe  Fe4  8  0.24341523  0.43762486  0.25000000  1
  Fe  Fe5  8  0.24461824  0.50000000  0.00000000  1
  Fe  Fe6  8  0.25000000  0.25000000  0.00000000  1
  Ge  Ge7  8  0.15265908  0.06093898  0.25000000  1
  Ge  Ge8  8  0.15383608  0.18620772  0.75000000  1
  Ge  Ge9  4  0.00000000  0.02154180  0.75000000  1
  Ge  Ge10  4  0.00000000  0.10316435  0.75000000  1
  Ge  Ge11  4  0.00000000  0.14560422  0.25000000  1
  Ge  Ge12  4  0.00000000  0.22556742  0.25000000  1
  Ge  Ge13  4  0.00000000  0.26812074  0.75000000  1
  Ge  Ge14  4  0.00000000  0.35207620  0.75000000  1
  Ge  Ge15  4  0.00000000  0.39392545  0.25000000  1
  Ge  Ge16  4  0.00000000  0.47935081  0.25000000  1
