# generated using pymatgen
data_U(SnHg)6
_symmetry_space_group_name_H-M   C2/m
_cell_length_a   11.95769801
_cell_length_b   5.79254190
_cell_length_c   13.29455552
_cell_angle_alpha   90.00000000
_cell_angle_beta   99.74745287
_cell_angle_gamma   90.00000000
_symmetry_Int_Tables_number   12
_chemical_formula_structural   U(SnHg)6
_chemical_formula_sum   'U2 Sn12 Hg12'
_cell_volume   907.55977069
_cell_formula_units_Z   2
loop_
 _symmetry_equiv_pos_site_id
 _symmetry_equiv_pos_as_xyz
  1  'x, y, z'
  2  '-x, -y, -z'
  3  '-x, y, -z'
  4  'x, -y, z'
  5  'x+1/2, y+1/2, z'
  6  '-x+1/2, -y+1/2, -z'
  7  '-x+1/2, y+1/2, -z'
  8  'x+1/2, -y+1/2, z'
loop_
 _atom_site_type_symbol
 _atom_site_label
 _atom_site_symmetry_multiplicity
 _atom_site_fract_x
 _atom_site_fract_y
 _atom_site_fract_z
 _atom_site_occupancy
  U  U0  2  0.00000000  0.00000000  0.50000000  1
  Sn  Sn1  4  0.07475199  0.50000000  0.60124382  1
  Sn  Sn2  4  0.14261581  0.50000000  0.81978976  1
  Sn  Sn3  4  0.17932520  0.00000000  0.71857499  1
  Hg  Hg4  4  0.04360366  0.00000000  0.27341224  1
  Hg  Hg5  4  0.25000000  0.25000000  0.00000000  1
  Hg  Hg6  4  0.25000000  0.25000000  0.50000000  1
