# generated using pymatgen
data_U(HgGe)6
_symmetry_space_group_name_H-M   Cmmm
_cell_length_a   6.05241337
_cell_length_b   55.47532572
_cell_length_c   8.54431113
_cell_angle_alpha   90.00000000
_cell_angle_beta   90.00000000
_cell_angle_gamma   90.00000000
_symmetry_Int_Tables_number   65
_chemical_formula_structural   U(HgGe)6
_chemical_formula_sum   'U10 Hg60 Ge60'
_cell_volume   2868.83451635
_cell_formula_units_Z   10
loop_
 _symmetry_equiv_pos_site_id
 _symmetry_equiv_pos_as_xyz
  1  'x, y, z'
  2  '-x, -y, -z'
  3  '-x, -y, z'
  4  'x, y, -z'
  5  'x, -y, -z'
  6  '-x, y, z'
  7  '-x, y, -z'
  8  'x, -y, z'
  9  'x+1/2, y+1/2, z'
  10  '-x+1/2, -y+1/2, -z'
  11  '-x+1/2, -y+1/2, z'
  12  'x+1/2, y+1/2, -z'
  13  'x+1/2, -y+1/2, -z'
  14  '-x+1/2, y+1/2, z'
  15  '-x+1/2, y+1/2, -z'
  16  'x+1/2, -y+1/2, z'
loop_
 _atom_site_type_symbol
 _atom_site_label
 _atom_site_symmetry_multiplicity
 _atom_site_fract_x
 _atom_site_fract_y
 _atom_site_fract_z
 _atom_site_occupancy
  U  U0  4  0.00000000  0.09631649  0.00000000  1
  U  U1  4  0.00000000  0.29663853  0.50000000  1
  U  U2  2  0.00000000  0.50000000  0.00000000  1
  Hg  Hg3  16  0.24798894  0.45081882  0.24726048  1
  Hg  Hg4  16  0.24987231  0.14988010  0.24991369  1
  Hg  Hg5  8  0.00000000  0.20031535  0.24255503  1
  Hg  Hg6  8  0.00000000  0.40055555  0.25745927  1
  Hg  Hg7  8  0.25000000  0.25000000  0.25114112  1
  Hg  Hg8  4  0.00000000  0.00000000  0.24779959  1
  Ge  Ge9  8  0.00000000  0.10126516  0.35738845  1
  Ge  Ge10  8  0.00000000  0.30118572  0.14251907  1
  Ge  Ge11  4  0.00000000  0.03095031  0.00000000  1
  Ge  Ge12  4  0.00000000  0.03472108  0.50000000  1
  Ge  Ge13  4  0.00000000  0.15449169  0.00000000  1
  Ge  Ge14  4  0.00000000  0.17691142  0.50000000  1
  Ge  Ge15  4  0.00000000  0.23188627  0.50000000  1
  Ge  Ge16  4  0.00000000  0.23402960  0.00000000  1
  Ge  Ge17  4  0.00000000  0.35461580  0.50000000  1
  Ge  Ge18  4  0.00000000  0.37700147  0.00000000  1
  Ge  Ge19  4  0.00000000  0.43233278  0.00000000  1
  Ge  Ge20  4  0.00000000  0.43344421  0.50000000  1
  Ge  Ge21  4  0.00000000  0.50000000  0.35641492  1
