# generated using pymatgen
data_U(SiHg)6
_symmetry_space_group_name_H-M   Cmcm
_cell_length_a   7.89623203
_cell_length_b   87.14920911
_cell_length_c   6.24098074
_cell_angle_alpha   90.00000000
_cell_angle_beta   90.00000000
_cell_angle_gamma   90.00000000
_symmetry_Int_Tables_number   63
_chemical_formula_structural   U(SiHg)6
_chemical_formula_sum   'U16 Si96 Hg96'
_cell_volume   4294.73325040
_cell_formula_units_Z   16
loop_
 _symmetry_equiv_pos_site_id
 _symmetry_equiv_pos_as_xyz
  1  'x, y, z'
  2  '-x, -y, -z'
  3  '-x, -y, z+1/2'
  4  'x, y, -z+1/2'
  5  'x, -y, -z'
  6  '-x, y, z'
  7  '-x, y, -z+1/2'
  8  'x, -y, z+1/2'
  9  'x+1/2, y+1/2, z'
  10  '-x+1/2, -y+1/2, -z'
  11  '-x+1/2, -y+1/2, z+1/2'
  12  'x+1/2, y+1/2, -z+1/2'
  13  'x+1/2, -y+1/2, -z'
  14  '-x+1/2, y+1/2, z'
  15  '-x+1/2, y+1/2, -z+1/2'
  16  'x+1/2, -y+1/2, z+1/2'
loop_
 _atom_site_type_symbol
 _atom_site_label
 _atom_site_symmetry_multiplicity
 _atom_site_fract_x
 _atom_site_fract_y
 _atom_site_fract_z
 _atom_site_occupancy
  U  U0  4  0.00000000  0.03148086  0.75000000  1
  U  U1  4  0.00000000  0.28150216  0.75000000  1
  U  U2  4  0.00000000  0.34377635  0.25000000  1
  U  U3  4  0.00000000  0.40635456  0.75000000  1
  Si  Si4  8  0.14900115  0.15623026  0.75000000  1
  Si  Si5  8  0.14912171  0.46890740  0.25000000  1
  Si  Si6  8  0.14916092  0.09374708  0.25000000  1
  Si  Si7  8  0.14920541  0.21882960  0.25000000  1
  Si  Si8  4  0.00000000  0.01048494  0.25000000  1
  Si  Si9  4  0.00000000  0.05074864  0.25000000  1
  Si  Si10  4  0.00000000  0.07120971  0.75000000  1
  Si  Si11  4  0.00000000  0.11462222  0.75000000  1
  Si  Si12  4  0.00000000  0.13545748  0.25000000  1
  Si  Si13  4  0.00000000  0.17702663  0.25000000  1
  Si  Si14  4  0.00000000  0.19811311  0.75000000  1
  Si  Si15  4  0.00000000  0.24291379  0.75000000  1
  Si  Si16  4  0.00000000  0.26340883  0.25000000  1
  Si  Si17  4  0.00000000  0.30195827  0.25000000  1
  Si  Si18  4  0.00000000  0.32298984  0.75000000  1
  Si  Si19  4  0.00000000  0.36445395  0.75000000  1
  Si  Si20  4  0.00000000  0.38545363  0.25000000  1
  Si  Si21  4  0.00000000  0.42437548  0.25000000  1
  Si  Si22  4  0.00000000  0.44432066  0.75000000  1
  Si  Si23  4  0.00000000  0.48941052  0.75000000  1
  Hg  Hg24  16  0.24316652  0.06246493  0.00059185  1
  Hg  Hg25  16  0.24409351  0.18744535  0.50020815  1
  Hg  Hg26  16  0.24454709  0.12505285  0.50010720  1
  Hg  Hg27  8  0.24019579  0.00000000  0.00000000  1
  Hg  Hg28  8  0.24149832  0.21853096  0.75000000  1
  Hg  Hg29  8  0.24156458  0.03106783  0.25000000  1
  Hg  Hg30  8  0.24194331  0.09394078  0.75000000  1
  Hg  Hg31  8  0.24472778  0.15625824  0.25000000  1
  Hg  Hg32  8  0.25000000  0.25000000  0.00000000  1
