# generated using pymatgen
data_U(ReGe)6
_symmetry_space_group_name_H-M   Cmcm
_cell_length_a   8.83524097
_cell_length_b   18.44095807
_cell_length_c   5.33491944
_cell_angle_alpha   90.00000000
_cell_angle_beta   90.00000000
_cell_angle_gamma   90.00000000
_symmetry_Int_Tables_number   63
_chemical_formula_structural   U(ReGe)6
_chemical_formula_sum   'U4 Re24 Ge24'
_cell_volume   869.22006818
_cell_formula_units_Z   4
loop_
 _symmetry_equiv_pos_site_id
 _symmetry_equiv_pos_as_xyz
  1  'x, y, z'
  2  '-x, -y, -z'
  3  '-x, -y, z+1/2'
  4  'x, y, -z+1/2'
  5  'x, -y, -z'
  6  '-x, y, z'
  7  '-x, y, -z+1/2'
  8  'x, -y, z+1/2'
  9  'x+1/2, y+1/2, z'
  10  '-x+1/2, -y+1/2, -z'
  11  '-x+1/2, -y+1/2, z+1/2'
  12  'x+1/2, y+1/2, -z+1/2'
  13  'x+1/2, -y+1/2, -z'
  14  '-x+1/2, y+1/2, z'
  15  '-x+1/2, y+1/2, -z+1/2'
  16  'x+1/2, -y+1/2, z+1/2'
loop_
 _atom_site_type_symbol
 _atom_site_label
 _atom_site_symmetry_multiplicity
 _atom_site_fract_x
 _atom_site_fract_y
 _atom_site_fract_z
 _atom_site_occupancy
  U  U0  4  0.00000000  0.37397473  0.75000000  1
  Re  Re1  8  0.24634521  0.37486054  0.25000000  1
  Re  Re2  8  0.24848406  0.00000000  0.00000000  1
  Re  Re3  8  0.25000000  0.25000000  0.00000000  1
  Ge  Ge4  8  0.16717335  0.12374064  0.25000000  1
  Ge  Ge5  4  0.00000000  0.04173159  0.75000000  1
  Ge  Ge6  4  0.00000000  0.20903022  0.75000000  1
  Ge  Ge7  4  0.00000000  0.29172117  0.25000000  1
  Ge  Ge8  4  0.00000000  0.45871715  0.25000000  1
