# generated using pymatgen
data_U(TaGe)6
_symmetry_space_group_name_H-M   Cmcm
_cell_length_a   8.56411525
_cell_length_b   39.95391794
_cell_length_c   5.75202316
_cell_angle_alpha   90.00000000
_cell_angle_beta   90.00000000
_cell_angle_gamma   90.00000000
_symmetry_Int_Tables_number   63
_chemical_formula_structural   U(TaGe)6
_chemical_formula_sum   'U8 Ta48 Ge48'
_cell_volume   1968.16952408
_cell_formula_units_Z   8
loop_
 _symmetry_equiv_pos_site_id
 _symmetry_equiv_pos_as_xyz
  1  'x, y, z'
  2  '-x, -y, -z'
  3  '-x, -y, z+1/2'
  4  'x, y, -z+1/2'
  5  'x, -y, -z'
  6  '-x, y, z'
  7  '-x, y, -z+1/2'
  8  'x, -y, z+1/2'
  9  'x+1/2, y+1/2, z'
  10  '-x+1/2, -y+1/2, -z'
  11  '-x+1/2, -y+1/2, z+1/2'
  12  'x+1/2, y+1/2, -z+1/2'
  13  'x+1/2, -y+1/2, -z'
  14  '-x+1/2, y+1/2, z'
  15  '-x+1/2, y+1/2, -z+1/2'
  16  'x+1/2, -y+1/2, z+1/2'
loop_
 _atom_site_type_symbol
 _atom_site_label
 _atom_site_symmetry_multiplicity
 _atom_site_fract_x
 _atom_site_fract_y
 _atom_site_fract_z
 _atom_site_occupancy
  U  U0  4  0.00000000  0.06524842  0.75000000  1
  U  U1  4  0.00000000  0.18909073  0.25000000  1
  Ta  Ta2  16  0.24569533  0.37504072  0.50014089  1
  Ta  Ta3  8  0.24674379  0.43759909  0.75000000  1
  Ta  Ta4  8  0.24721971  0.31260272  0.25000000  1
  Ta  Ta5  8  0.24951857  0.50000000  0.00000000  1
  Ta  Ta6  8  0.25000000  0.25000000  0.00000000  1
  Ge  Ge7  8  0.17189360  0.31260404  0.75000000  1
  Ge  Ge8  8  0.17587124  0.43882826  0.25000000  1
  Ge  Ge9  4  0.00000000  0.02200020  0.25000000  1
  Ge  Ge10  4  0.00000000  0.10443522  0.25000000  1
  Ge  Ge11  4  0.00000000  0.14599392  0.75000000  1
  Ge  Ge12  4  0.00000000  0.22710694  0.75000000  1
  Ge  Ge13  4  0.00000000  0.26994674  0.25000000  1
  Ge  Ge14  4  0.00000000  0.35431067  0.25000000  1
  Ge  Ge15  4  0.00000000  0.39679803  0.75000000  1
  Ge  Ge16  4  0.00000000  0.47889468  0.75000000  1
