# generated using pymatgen
data_U(SnPd)6
_symmetry_space_group_name_H-M   Cmcm
_cell_length_a   8.93596899
_cell_length_b   80.06082641
_cell_length_c   5.77826940
_cell_angle_alpha   90.00000000
_cell_angle_beta   90.00000000
_cell_angle_gamma   90.00000000
_symmetry_Int_Tables_number   63
_chemical_formula_structural   U(SnPd)6
_chemical_formula_sum   'U16 Sn96 Pd96'
_cell_volume   4133.89562928
_cell_formula_units_Z   16
loop_
 _symmetry_equiv_pos_site_id
 _symmetry_equiv_pos_as_xyz
  1  'x, y, z'
  2  '-x, -y, -z'
  3  '-x, -y, z+1/2'
  4  'x, y, -z+1/2'
  5  'x, -y, -z'
  6  '-x, y, z'
  7  '-x, y, -z+1/2'
  8  'x, -y, z+1/2'
  9  'x+1/2, y+1/2, z'
  10  '-x+1/2, -y+1/2, -z'
  11  '-x+1/2, -y+1/2, z+1/2'
  12  'x+1/2, y+1/2, -z+1/2'
  13  'x+1/2, -y+1/2, -z'
  14  '-x+1/2, y+1/2, z'
  15  '-x+1/2, y+1/2, -z+1/2'
  16  'x+1/2, -y+1/2, z+1/2'
loop_
 _atom_site_type_symbol
 _atom_site_label
 _atom_site_symmetry_multiplicity
 _atom_site_fract_x
 _atom_site_fract_y
 _atom_site_fract_z
 _atom_site_occupancy
  U  U0  4  0.00000000  0.09401340  0.75000000  1
  U  U1  4  0.00000000  0.15617114  0.25000000  1
  U  U2  4  0.00000000  0.21881945  0.75000000  1
  U  U3  4  0.00000000  0.46859799  0.75000000  1
  Sn  Sn4  8  0.16102582  0.28097487  0.25000000  1
  Sn  Sn5  8  0.16123819  0.40631267  0.25000000  1
  Sn  Sn6  8  0.16124336  0.03125255  0.25000000  1
  Sn  Sn7  8  0.16125374  0.34376303  0.75000000  1
  Sn  Sn8  4  0.00000000  0.01037909  0.75000000  1
  Sn  Sn9  4  0.00000000  0.05177698  0.75000000  1
  Sn  Sn10  4  0.00000000  0.07256595  0.25000000  1
  Sn  Sn11  4  0.00000000  0.11454765  0.25000000  1
  Sn  Sn12  4  0.00000000  0.13539716  0.75000000  1
  Sn  Sn13  4  0.00000000  0.17714048  0.75000000  1
  Sn  Sn14  4  0.00000000  0.19779223  0.25000000  1
  Sn  Sn15  4  0.00000000  0.23958544  0.25000000  1
  Sn  Sn16  4  0.00000000  0.26023601  0.75000000  1
  Sn  Sn17  4  0.00000000  0.30200800  0.75000000  1
  Sn  Sn18  4  0.00000000  0.32286918  0.25000000  1
  Sn  Sn19  4  0.00000000  0.36459205  0.25000000  1
  Sn  Sn20  4  0.00000000  0.38545051  0.75000000  1
  Sn  Sn21  4  0.00000000  0.42678020  0.75000000  1
  Sn  Sn22  4  0.00000000  0.44755987  0.25000000  1
  Sn  Sn23  4  0.00000000  0.48965603  0.25000000  1
  Pd  Pd24  16  0.24248699  0.56231494  0.00145474  1
  Pd  Pd25  16  0.24551933  0.31248478  0.00005417  1
  Pd  Pd26  16  0.24584856  0.37501971  0.00006739  1
  Pd  Pd27  8  0.23819173  0.46875246  0.25000000  1
  Pd  Pd28  8  0.23968511  0.50000000  0.00000000  1
  Pd  Pd29  8  0.24529556  0.28123469  0.75000000  1
  Pd  Pd30  8  0.24558384  0.34374555  0.25000000  1
  Pd  Pd31  8  0.24740463  0.40627452  0.75000000  1
  Pd  Pd32  8  0.25000000  0.25000000  0.00000000  1
