# generated using pymatgen
data_U(MnSn)6
_symmetry_space_group_name_H-M   Immm
_cell_length_a   5.49973069
_cell_length_b   9.20505988
_cell_length_c   28.54751730
_cell_angle_alpha   90.00000000
_cell_angle_beta   90.00000000
_cell_angle_gamma   90.00000000
_symmetry_Int_Tables_number   71
_chemical_formula_structural   U(MnSn)6
_chemical_formula_sum   'U6 Mn36 Sn36'
_cell_volume   1445.22806288
_cell_formula_units_Z   6
loop_
 _symmetry_equiv_pos_site_id
 _symmetry_equiv_pos_as_xyz
  1  'x, y, z'
  2  '-x, -y, -z'
  3  '-x, -y, z'
  4  'x, y, -z'
  5  'x, -y, -z'
  6  '-x, y, z'
  7  '-x, y, -z'
  8  'x, -y, z'
  9  'x+1/2, y+1/2, z+1/2'
  10  '-x+1/2, -y+1/2, -z+1/2'
  11  '-x+1/2, -y+1/2, z+1/2'
  12  'x+1/2, y+1/2, -z+1/2'
  13  'x+1/2, -y+1/2, -z+1/2'
  14  '-x+1/2, y+1/2, z+1/2'
  15  '-x+1/2, y+1/2, -z+1/2'
  16  'x+1/2, -y+1/2, z+1/2'
loop_
 _atom_site_type_symbol
 _atom_site_label
 _atom_site_symmetry_multiplicity
 _atom_site_fract_x
 _atom_site_fract_y
 _atom_site_fract_z
 _atom_site_occupancy
  U  U0  4  0.00000000  0.00000000  0.16722727  1
  U  U1  2  0.00000000  0.50000000  0.50000000  1
  Mn  Mn2  16  0.24993806  0.24640952  0.41670875  1
  Mn  Mn3  8  0.00000000  0.24559911  0.33343187  1
  Mn  Mn4  8  0.25000000  0.25000000  0.25000000  1
  Mn  Mn5  4  0.00000000  0.25404873  0.00000000  1
  Sn  Sn6  8  0.00000000  0.32681617  0.83367483  1
  Sn  Sn7  4  0.00000000  0.00000000  0.05572487  1
  Sn  Sn8  4  0.00000000  0.00000000  0.27882942  1
  Sn  Sn9  4  0.00000000  0.00000000  0.38950100  1
  Sn  Sn10  4  0.00000000  0.17307764  0.50000000  1
  Sn  Sn11  4  0.00000000  0.50000000  0.05573212  1
  Sn  Sn12  4  0.00000000  0.50000000  0.27712035  1
  Sn  Sn13  4  0.00000000  0.50000000  0.38850698  1
