# generated using pymatgen
data_U(AgPb)6
_symmetry_space_group_name_H-M   Cmcm
_cell_length_a   10.42023560
_cell_length_b   82.58594536
_cell_length_c   5.94165852
_cell_angle_alpha   90.00000000
_cell_angle_beta   90.00000000
_cell_angle_gamma   90.00000000
_symmetry_Int_Tables_number   63
_chemical_formula_structural   U(AgPb)6
_chemical_formula_sum   'U16 Ag96 Pb96'
_cell_volume   5113.18340583
_cell_formula_units_Z   16
loop_
 _symmetry_equiv_pos_site_id
 _symmetry_equiv_pos_as_xyz
  1  'x, y, z'
  2  '-x, -y, -z'
  3  '-x, -y, z+1/2'
  4  'x, y, -z+1/2'
  5  'x, -y, -z'
  6  '-x, y, z'
  7  '-x, y, -z+1/2'
  8  'x, -y, z+1/2'
  9  'x+1/2, y+1/2, z'
  10  '-x+1/2, -y+1/2, -z'
  11  '-x+1/2, -y+1/2, z+1/2'
  12  'x+1/2, y+1/2, -z+1/2'
  13  'x+1/2, -y+1/2, -z'
  14  '-x+1/2, y+1/2, z'
  15  '-x+1/2, y+1/2, -z+1/2'
  16  'x+1/2, -y+1/2, z+1/2'
loop_
 _atom_site_type_symbol
 _atom_site_label
 _atom_site_symmetry_multiplicity
 _atom_site_fract_x
 _atom_site_fract_y
 _atom_site_fract_z
 _atom_site_occupancy
  U  U0  4  0.00000000  0.09392192  0.25000000  1
  U  U1  4  0.00000000  0.15621816  0.75000000  1
  U  U2  4  0.00000000  0.21850826  0.25000000  1
  U  U3  4  0.00000000  0.46875713  0.25000000  1
  Ag  Ag4  16  0.24667522  0.43771496  0.00123743  1
  Ag  Ag5  16  0.24882869  0.12500063  0.50002345  1
  Ag  Ag6  16  0.24905884  0.18752872  0.00019469  1
  Ag  Ag7  8  0.24161812  0.50000000  0.00000000  1
  Ag  Ag8  8  0.24172587  0.53122213  0.25000000  1
  Ag  Ag9  8  0.24865187  0.09371495  0.75000000  1
  Ag  Ag10  8  0.24886996  0.84374836  0.75000000  1
  Ag  Ag11  8  0.24996745  0.28123470  0.25000000  1
  Ag  Ag12  8  0.25000000  0.25000000  0.00000000  1
  Pb  Pb13  8  0.17609794  0.03103295  0.75000000  1
  Pb  Pb14  8  0.17677031  0.71879548  0.25000000  1
  Pb  Pb15  8  0.17763312  0.59381588  0.25000000  1
  Pb  Pb16  8  0.17772900  0.34374328  0.25000000  1
  Pb  Pb17  4  0.00000000  0.01033331  0.25000000  1
  Pb  Pb18  4  0.00000000  0.05293932  0.25000000  1
  Pb  Pb19  4  0.00000000  0.07364635  0.75000000  1
  Pb  Pb20  4  0.00000000  0.11464976  0.75000000  1
  Pb  Pb21  4  0.00000000  0.13547333  0.25000000  1
  Pb  Pb22  4  0.00000000  0.17700008  0.25000000  1
  Pb  Pb23  4  0.00000000  0.19775616  0.75000000  1
  Pb  Pb24  4  0.00000000  0.23851017  0.75000000  1
  Pb  Pb25  4  0.00000000  0.25931501  0.25000000  1
  Pb  Pb26  4  0.00000000  0.30206539  0.25000000  1
  Pb  Pb27  4  0.00000000  0.32285541  0.75000000  1
  Pb  Pb28  4  0.00000000  0.36462295  0.75000000  1
  Pb  Pb29  4  0.00000000  0.38538716  0.25000000  1
  Pb  Pb30  4  0.00000000  0.42768299  0.25000000  1
  Pb  Pb31  4  0.00000000  0.44849669  0.75000000  1
  Pb  Pb32  4  0.00000000  0.48959465  0.75000000  1
