# generated using pymatgen
data_U(TaSi)6
_symmetry_space_group_name_H-M   Cmcm
_cell_length_a   8.29662255
_cell_length_b   39.32227910
_cell_length_c   5.63963424
_cell_angle_alpha   90.00000000
_cell_angle_beta   90.00000000
_cell_angle_gamma   90.00000000
_symmetry_Int_Tables_number   63
_chemical_formula_structural   U(TaSi)6
_chemical_formula_sum   'U8 Ta48 Si48'
_cell_volume   1839.88616022
_cell_formula_units_Z   8
loop_
 _symmetry_equiv_pos_site_id
 _symmetry_equiv_pos_as_xyz
  1  'x, y, z'
  2  '-x, -y, -z'
  3  '-x, -y, z+1/2'
  4  'x, y, -z+1/2'
  5  'x, -y, -z'
  6  '-x, y, z'
  7  '-x, y, -z+1/2'
  8  'x, -y, z+1/2'
  9  'x+1/2, y+1/2, z'
  10  '-x+1/2, -y+1/2, -z'
  11  '-x+1/2, -y+1/2, z+1/2'
  12  'x+1/2, y+1/2, -z+1/2'
  13  'x+1/2, -y+1/2, -z'
  14  '-x+1/2, y+1/2, z'
  15  '-x+1/2, y+1/2, -z+1/2'
  16  'x+1/2, -y+1/2, z+1/2'
loop_
 _atom_site_type_symbol
 _atom_site_label
 _atom_site_symmetry_multiplicity
 _atom_site_fract_x
 _atom_site_fract_y
 _atom_site_fract_z
 _atom_site_occupancy
  U  U0  4  0.00000000  0.06541351  0.75000000  1
  U  U1  4  0.00000000  0.18932345  0.25000000  1
  Ta  Ta2  16  0.24662165  0.37532702  0.00073939  1
  Ta  Ta3  8  0.24708902  0.31255955  0.25000000  1
  Ta  Ta4  8  0.24947724  0.50000000  0.00000000  1
  Ta  Ta5  8  0.24989947  0.06231277  0.25000000  1
  Ta  Ta6  8  0.25000000  0.25000000  0.00000000  1
  Si  Si7  8  0.15559464  0.31316070  0.75000000  1
  Si  Si8  8  0.15616114  0.43837198  0.25000000  1
  Si  Si9  4  0.00000000  0.02119735  0.25000000  1
  Si  Si10  4  0.00000000  0.10482609  0.25000000  1
  Si  Si11  4  0.00000000  0.14654476  0.75000000  1
  Si  Si12  4  0.00000000  0.22644177  0.75000000  1
  Si  Si13  4  0.00000000  0.26981173  0.25000000  1
  Si  Si14  4  0.00000000  0.35360826  0.25000000  1
  Si  Si15  4  0.00000000  0.39697665  0.75000000  1
  Si  Si16  4  0.00000000  0.47912316  0.75000000  1
