# generated using pymatgen
data_U(NbPb)6
_symmetry_space_group_name_H-M   Cmcm
_cell_length_a   10.15143058
_cell_length_b   80.62245171
_cell_length_c   5.80777789
_cell_angle_alpha   90.00000000
_cell_angle_beta   90.00000000
_cell_angle_gamma   90.00000000
_symmetry_Int_Tables_number   63
_chemical_formula_structural   U(NbPb)6
_chemical_formula_sum   'U16 Nb96 Pb96'
_cell_volume   4753.27837225
_cell_formula_units_Z   16
loop_
 _symmetry_equiv_pos_site_id
 _symmetry_equiv_pos_as_xyz
  1  'x, y, z'
  2  '-x, -y, -z'
  3  '-x, -y, z+1/2'
  4  'x, y, -z+1/2'
  5  'x, -y, -z'
  6  '-x, y, z'
  7  '-x, y, -z+1/2'
  8  'x, -y, z+1/2'
  9  'x+1/2, y+1/2, z'
  10  '-x+1/2, -y+1/2, -z'
  11  '-x+1/2, -y+1/2, z+1/2'
  12  'x+1/2, y+1/2, -z+1/2'
  13  'x+1/2, -y+1/2, -z'
  14  '-x+1/2, y+1/2, z'
  15  '-x+1/2, y+1/2, -z+1/2'
  16  'x+1/2, -y+1/2, z+1/2'
loop_
 _atom_site_type_symbol
 _atom_site_label
 _atom_site_symmetry_multiplicity
 _atom_site_fract_x
 _atom_site_fract_y
 _atom_site_fract_z
 _atom_site_occupancy
  U  U0  4  0.00000000  0.09371780  0.25000000  1
  U  U1  4  0.00000000  0.15622702  0.75000000  1
  U  U2  4  0.00000000  0.21887395  0.25000000  1
  U  U3  4  0.00000000  0.46831981  0.25000000  1
  Nb  Nb4  16  0.24379243  0.12500969  0.50023274  1
  Nb  Nb5  16  0.24387918  0.18750574  0.50008357  1
  Nb  Nb6  16  0.24828039  0.43767381  0.00140420  1
  Nb  Nb7  8  0.24180185  0.46870801  0.75000000  1
  Nb  Nb8  8  0.24230019  0.50000000  0.00000000  1
  Nb  Nb9  8  0.24369359  0.15625536  0.25000000  1
  Nb  Nb10  8  0.24374837  0.09368773  0.75000000  1
  Nb  Nb11  8  0.24437918  0.21878916  0.75000000  1
  Nb  Nb12  8  0.25000000  0.25000000  0.00000000  1
  Pb  Pb13  8  0.16985149  0.28132823  0.75000000  1
  Pb  Pb14  8  0.16993119  0.34374126  0.25000000  1
  Pb  Pb15  8  0.17059810  0.40618419  0.75000000  1
  Pb  Pb16  8  0.17085611  0.03101548  0.75000000  1
  Pb  Pb17  4  0.00000000  0.01037998  0.25000000  1
  Pb  Pb18  4  0.00000000  0.05223431  0.25000000  1
  Pb  Pb19  4  0.00000000  0.07289149  0.75000000  1
  Pb  Pb20  4  0.00000000  0.11448928  0.75000000  1
  Pb  Pb21  4  0.00000000  0.13541323  0.25000000  1
  Pb  Pb22  4  0.00000000  0.17710306  0.25000000  1
  Pb  Pb23  4  0.00000000  0.19795057  0.75000000  1
  Pb  Pb24  4  0.00000000  0.23936713  0.75000000  1
  Pb  Pb25  4  0.00000000  0.26012917  0.25000000  1
  Pb  Pb26  4  0.00000000  0.30211917  0.25000000  1
  Pb  Pb27  4  0.00000000  0.32290738  0.75000000  1
  Pb  Pb28  4  0.00000000  0.36457190  0.75000000  1
  Pb  Pb29  4  0.00000000  0.38529932  0.25000000  1
  Pb  Pb30  4  0.00000000  0.42692177  0.25000000  1
  Pb  Pb31  4  0.00000000  0.44778177  0.75000000  1
  Pb  Pb32  4  0.00000000  0.48955153  0.75000000  1
