# generated using pymatgen
data_U(NbGe)6
_symmetry_space_group_name_H-M   Immm
_cell_length_a   5.62472809
_cell_length_b   8.77286920
_cell_length_c   29.17082902
_cell_angle_alpha   90.00000000
_cell_angle_beta   90.00000000
_cell_angle_gamma   90.00000000
_symmetry_Int_Tables_number   71
_chemical_formula_structural   U(NbGe)6
_chemical_formula_sum   'U6 Nb36 Ge36'
_cell_volume   1439.43467003
_cell_formula_units_Z   6
loop_
 _symmetry_equiv_pos_site_id
 _symmetry_equiv_pos_as_xyz
  1  'x, y, z'
  2  '-x, -y, -z'
  3  '-x, -y, z'
  4  'x, y, -z'
  5  'x, -y, -z'
  6  '-x, y, z'
  7  '-x, y, -z'
  8  'x, -y, z'
  9  'x+1/2, y+1/2, z+1/2'
  10  '-x+1/2, -y+1/2, -z+1/2'
  11  '-x+1/2, -y+1/2, z+1/2'
  12  'x+1/2, y+1/2, -z+1/2'
  13  'x+1/2, -y+1/2, -z+1/2'
  14  '-x+1/2, y+1/2, z+1/2'
  15  '-x+1/2, y+1/2, -z+1/2'
  16  'x+1/2, -y+1/2, z+1/2'
loop_
 _atom_site_type_symbol
 _atom_site_label
 _atom_site_symmetry_multiplicity
 _atom_site_fract_x
 _atom_site_fract_y
 _atom_site_fract_z
 _atom_site_occupancy
  U  U0  4  0.00000000  0.50000000  0.33424751  1
  U  U1  2  0.00000000  0.00000000  0.00000000  1
  Nb  Nb2  16  0.24968590  0.24876824  0.41663160  1
  Nb  Nb3  8  0.00000000  0.25784519  0.16677204  1
  Nb  Nb4  8  0.25000000  0.25000000  0.25000000  1
  Nb  Nb5  4  0.00000000  0.24646829  0.50000000  1
  Ge  Ge6  8  0.00000000  0.17383714  0.33302040  1
  Ge  Ge7  4  0.00000000  0.00000000  0.11186572  1
  Ge  Ge8  4  0.00000000  0.00000000  0.21816746  1
  Ge  Ge9  4  0.00000000  0.00000000  0.44375300  1
  Ge  Ge10  4  0.00000000  0.32465837  0.00000000  1
  Ge  Ge11  4  0.00000000  0.50000000  0.10955894  1
  Ge  Ge12  4  0.00000000  0.50000000  0.22612749  1
  Ge  Ge13  4  0.00000000  0.50000000  0.44497617  1
