# generated using pymatgen
data_U(HgPb)6
_symmetry_space_group_name_H-M   Immm
_cell_length_a   5.77595253
_cell_length_b   14.99648778
_cell_length_c   30.16519372
_cell_angle_alpha   90.00000000
_cell_angle_beta   90.00000000
_cell_angle_gamma   90.00000000
_symmetry_Int_Tables_number   71
_chemical_formula_structural   U(HgPb)6
_chemical_formula_sum   'U6 Hg36 Pb36'
_cell_volume   2612.87896225
_cell_formula_units_Z   6
loop_
 _symmetry_equiv_pos_site_id
 _symmetry_equiv_pos_as_xyz
  1  'x, y, z'
  2  '-x, -y, -z'
  3  '-x, -y, z'
  4  'x, y, -z'
  5  'x, -y, -z'
  6  '-x, y, z'
  7  '-x, y, -z'
  8  'x, -y, z'
  9  'x+1/2, y+1/2, z+1/2'
  10  '-x+1/2, -y+1/2, -z+1/2'
  11  '-x+1/2, -y+1/2, z+1/2'
  12  'x+1/2, y+1/2, -z+1/2'
  13  'x+1/2, -y+1/2, -z+1/2'
  14  '-x+1/2, y+1/2, z+1/2'
  15  '-x+1/2, y+1/2, -z+1/2'
  16  'x+1/2, -y+1/2, z+1/2'
loop_
 _atom_site_type_symbol
 _atom_site_label
 _atom_site_symmetry_multiplicity
 _atom_site_fract_x
 _atom_site_fract_y
 _atom_site_fract_z
 _atom_site_occupancy
  U  U0  4  0.00000000  0.50000000  0.33648649  1
  U  U1  2  0.00000000  0.00000000  0.00000000  1
  Hg  Hg2  16  0.24986281  0.25992300  0.08334383  1
  Hg  Hg3  8  0.00000000  0.26788393  0.16691581  1
  Hg  Hg4  8  0.25000000  0.25000000  0.25000000  1
  Hg  Hg5  4  0.00000000  0.24013022  0.50000000  1
  Pb  Pb6  8  0.00000000  0.10473372  0.33252382  1
  Pb  Pb7  4  0.00000000  0.00000000  0.11001139  1
  Pb  Pb8  4  0.00000000  0.00000000  0.21825690  1
  Pb  Pb9  4  0.00000000  0.00000000  0.44410792  1
  Pb  Pb10  4  0.00000000  0.39448758  0.00000000  1
  Pb  Pb11  4  0.00000000  0.50000000  0.11084216  1
  Pb  Pb12  4  0.00000000  0.50000000  0.22701687  1
  Pb  Pb13  4  0.00000000  0.50000000  0.44554746  1
