# generated using pymatgen
data_U(SiPt)6
_symmetry_space_group_name_H-M   Cmcm
_cell_length_a   7.72514855
_cell_length_b   39.06176646
_cell_length_c   5.61832465
_cell_angle_alpha   90.00000000
_cell_angle_beta   90.00000000
_cell_angle_gamma   90.00000000
_symmetry_Int_Tables_number   63
_chemical_formula_structural   U(SiPt)6
_chemical_formula_sum   'U8 Si48 Pt48'
_cell_volume   1695.37412137
_cell_formula_units_Z   8
loop_
 _symmetry_equiv_pos_site_id
 _symmetry_equiv_pos_as_xyz
  1  'x, y, z'
  2  '-x, -y, -z'
  3  '-x, -y, z+1/2'
  4  'x, y, -z+1/2'
  5  'x, -y, -z'
  6  '-x, y, z'
  7  '-x, y, -z+1/2'
  8  'x, -y, z+1/2'
  9  'x+1/2, y+1/2, z'
  10  '-x+1/2, -y+1/2, -z'
  11  '-x+1/2, -y+1/2, z+1/2'
  12  'x+1/2, y+1/2, -z+1/2'
  13  'x+1/2, -y+1/2, -z'
  14  '-x+1/2, y+1/2, z'
  15  '-x+1/2, y+1/2, -z+1/2'
  16  'x+1/2, -y+1/2, z+1/2'
loop_
 _atom_site_type_symbol
 _atom_site_label
 _atom_site_symmetry_multiplicity
 _atom_site_fract_x
 _atom_site_fract_y
 _atom_site_fract_z
 _atom_site_occupancy
  U  U0  4  0.00000000  0.06539861  0.75000000  1
  U  U1  4  0.00000000  0.18836516  0.25000000  1
  Si  Si2  8  0.14888677  0.31488044  0.75000000  1
  Si  Si3  8  0.14967524  0.44559995  0.25000000  1
  Si  Si4  4  0.00000000  0.02356598  0.25000000  1
  Si  Si5  4  0.00000000  0.10544236  0.25000000  1
  Si  Si6  4  0.00000000  0.14744421  0.75000000  1
  Si  Si7  4  0.00000000  0.22611274  0.75000000  1
  Si  Si8  4  0.00000000  0.26940181  0.25000000  1
  Si  Si9  4  0.00000000  0.35723170  0.25000000  1
  Si  Si10  4  0.00000000  0.39643458  0.75000000  1
  Si  Si11  4  0.00000000  0.47607065  0.75000000  1
  Pt  Pt12  16  0.24380989  0.37356506  0.50310146  1
  Pt  Pt13  8  0.24259431  0.43710680  0.75000000  1
  Pt  Pt14  8  0.24439596  0.31206880  0.25000000  1
  Pt  Pt15  8  0.24519510  0.50000000  0.00000000  1
  Pt  Pt16  8  0.25000000  0.25000000  0.00000000  1
