# generated using pymatgen
data_U(ReSn)6
_symmetry_space_group_name_H-M   C2/m
_cell_length_a   12.88445939
_cell_length_b   5.24977181
_cell_length_c   9.81949696
_cell_angle_alpha   90.00000000
_cell_angle_beta   130.68966666
_cell_angle_gamma   90.00000000
_symmetry_Int_Tables_number   12
_chemical_formula_structural   U(ReSn)6
_chemical_formula_sum   'U2 Re12 Sn12'
_cell_volume   503.62744878
_cell_formula_units_Z   2
loop_
 _symmetry_equiv_pos_site_id
 _symmetry_equiv_pos_as_xyz
  1  'x, y, z'
  2  '-x, -y, -z'
  3  '-x, y, -z'
  4  'x, -y, z'
  5  'x+1/2, y+1/2, z'
  6  '-x+1/2, -y+1/2, -z'
  7  '-x+1/2, y+1/2, -z'
  8  'x+1/2, -y+1/2, z'
loop_
 _atom_site_type_symbol
 _atom_site_label
 _atom_site_symmetry_multiplicity
 _atom_site_fract_x
 _atom_site_fract_y
 _atom_site_fract_z
 _atom_site_occupancy
  U  U0  2  0.00000000  0.00000000  0.50000000  1
  Re  Re1  4  0.21578376  0.50000000  0.69646657  1
  Re  Re2  4  0.25000000  0.25000000  0.00000000  1
  Re  Re3  4  0.25000000  0.25000000  0.50000000  1
  Sn  Sn4  4  0.00481923  0.00000000  0.16264868  1
  Sn  Sn5  4  0.00675630  0.50000000  0.69245450  1
  Sn  Sn6  4  0.17389562  0.50000000  0.16614607  1
