# generated using pymatgen
data_U(SiW)6
_symmetry_space_group_name_H-M   Cmcm
_cell_length_a   8.34541237
_cell_length_b   74.90571155
_cell_length_c   5.39259137
_cell_angle_alpha   90.00000000
_cell_angle_beta   90.00000000
_cell_angle_gamma   90.00000000
_symmetry_Int_Tables_number   63
_chemical_formula_structural   U(SiW)6
_chemical_formula_sum   'U16 Si96 W96'
_cell_volume   3371.01160134
_cell_formula_units_Z   16
loop_
 _symmetry_equiv_pos_site_id
 _symmetry_equiv_pos_as_xyz
  1  'x, y, z'
  2  '-x, -y, -z'
  3  '-x, -y, z+1/2'
  4  'x, y, -z+1/2'
  5  'x, -y, -z'
  6  '-x, y, z'
  7  '-x, y, -z+1/2'
  8  'x, -y, z+1/2'
  9  'x+1/2, y+1/2, z'
  10  '-x+1/2, -y+1/2, -z'
  11  '-x+1/2, -y+1/2, z+1/2'
  12  'x+1/2, y+1/2, -z+1/2'
  13  'x+1/2, -y+1/2, -z'
  14  '-x+1/2, y+1/2, z'
  15  '-x+1/2, y+1/2, -z+1/2'
  16  'x+1/2, -y+1/2, z+1/2'
loop_
 _atom_site_type_symbol
 _atom_site_label
 _atom_site_symmetry_multiplicity
 _atom_site_fract_x
 _atom_site_fract_y
 _atom_site_fract_z
 _atom_site_occupancy
  U  U0  4  0.00000000  0.03114057  0.25000000  1
  U  U1  4  0.00000000  0.28164074  0.25000000  1
  U  U2  4  0.00000000  0.34375359  0.75000000  1
  U  U3  4  0.00000000  0.40611073  0.25000000  1
  Si  Si4  8  0.16184017  0.15621978  0.25000000  1
  Si  Si5  8  0.16209227  0.90608361  0.25000000  1
  Si  Si6  8  0.16246787  0.21871869  0.75000000  1
  Si  Si7  8  0.16406654  0.46875966  0.75000000  1
  Si  Si8  4  0.00000000  0.01046705  0.75000000  1
  Si  Si9  4  0.00000000  0.05118354  0.75000000  1
  Si  Si10  4  0.00000000  0.07201687  0.25000000  1
  Si  Si11  4  0.00000000  0.11459083  0.25000000  1
  Si  Si12  4  0.00000000  0.13543030  0.75000000  1
  Si  Si13  4  0.00000000  0.17708119  0.75000000  1
  Si  Si14  4  0.00000000  0.19781956  0.25000000  1
  Si  Si15  4  0.00000000  0.24105527  0.25000000  1
  Si  Si16  4  0.00000000  0.26181627  0.75000000  1
  Si  Si17  4  0.00000000  0.30203703  0.75000000  1
  Si  Si18  4  0.00000000  0.32301053  0.25000000  1
  Si  Si19  4  0.00000000  0.36455122  0.25000000  1
  Si  Si20  4  0.00000000  0.38544900  0.75000000  1
  Si  Si21  4  0.00000000  0.42599773  0.75000000  1
  Si  Si22  4  0.00000000  0.44684845  0.25000000  1
  Si  Si23  4  0.00000000  0.48959103  0.25000000  1
  W  W24  16  0.24524691  0.12501091  0.00006940  1
  W  W25  16  0.24542036  0.18752187  0.00009228  1
  W  W26  16  0.24747636  0.06253037  0.50016334  1
  W  W27  8  0.24157710  0.21880992  0.25000000  1
  W  W28  8  0.24417959  0.09375636  0.25000000  1
  W  W29  8  0.24521185  0.15626088  0.75000000  1
  W  W30  8  0.24913606  0.46873060  0.25000000  1
  W  W31  8  0.24969646  0.50000000  0.00000000  1
  W  W32  8  0.25000000  0.25000000  0.00000000  1
