# generated using pymatgen
data_U(RuPb)6
_symmetry_space_group_name_H-M   Cmcm
_cell_length_a   9.60196149
_cell_length_b   80.39435156
_cell_length_c   5.39519351
_cell_angle_alpha   90.00000000
_cell_angle_beta   90.00000000
_cell_angle_gamma   90.00000000
_symmetry_Int_Tables_number   63
_chemical_formula_structural   U(RuPb)6
_chemical_formula_sum   'U16 Ru96 Pb96'
_cell_volume   4164.78438829
_cell_formula_units_Z   16
loop_
 _symmetry_equiv_pos_site_id
 _symmetry_equiv_pos_as_xyz
  1  'x, y, z'
  2  '-x, -y, -z'
  3  '-x, -y, z+1/2'
  4  'x, y, -z+1/2'
  5  'x, -y, -z'
  6  '-x, y, z'
  7  '-x, y, -z+1/2'
  8  'x, -y, z+1/2'
  9  'x+1/2, y+1/2, z'
  10  '-x+1/2, -y+1/2, -z'
  11  '-x+1/2, -y+1/2, z+1/2'
  12  'x+1/2, y+1/2, -z+1/2'
  13  'x+1/2, -y+1/2, -z'
  14  '-x+1/2, y+1/2, z'
  15  '-x+1/2, y+1/2, -z+1/2'
  16  'x+1/2, -y+1/2, z+1/2'
loop_
 _atom_site_type_symbol
 _atom_site_label
 _atom_site_symmetry_multiplicity
 _atom_site_fract_x
 _atom_site_fract_y
 _atom_site_fract_z
 _atom_site_occupancy
  U  U0  4  0.00000000  0.09417509  0.25000000  1
  U  U1  4  0.00000000  0.15620266  0.75000000  1
  U  U2  4  0.00000000  0.21872297  0.25000000  1
  U  U3  4  0.00000000  0.46844663  0.25000000  1
  Ru  Ru4  16  0.24489941  0.43825856  0.01808144  1
  Ru  Ru5  16  0.24660316  0.87512814  0.00120995  1
  Ru  Ru6  16  0.24689996  0.18746511  0.00151274  1
  Ru  Ru7  8  0.23290572  0.46833921  0.75000000  1
  Ru  Ru8  8  0.24058463  0.50000000  0.00000000  1
  Ru  Ru9  8  0.24073121  0.09414242  0.75000000  1
  Ru  Ru10  8  0.24169783  0.21894454  0.75000000  1
  Ru  Ru11  8  0.24193505  0.15630162  0.25000000  1
  Ru  Ru12  8  0.25000000  0.25000000  0.00000000  1
  Pb  Pb13  8  0.17749824  0.96917847  0.25000000  1
  Pb  Pb14  8  0.17811201  0.34373502  0.25000000  1
  Pb  Pb15  8  0.17883205  0.28132546  0.75000000  1
  Pb  Pb16  8  0.17936638  0.40627604  0.75000000  1
  Pb  Pb17  4  0.00000000  0.01058940  0.25000000  1
  Pb  Pb18  4  0.00000000  0.05148126  0.25000000  1
  Pb  Pb19  4  0.00000000  0.07283416  0.75000000  1
  Pb  Pb20  4  0.00000000  0.11418488  0.75000000  1
  Pb  Pb21  4  0.00000000  0.13560240  0.25000000  1
  Pb  Pb22  4  0.00000000  0.17688719  0.25000000  1
  Pb  Pb23  4  0.00000000  0.19810540  0.75000000  1
  Pb  Pb24  4  0.00000000  0.23947306  0.75000000  1
  Pb  Pb25  4  0.00000000  0.26088672  0.25000000  1
  Pb  Pb26  4  0.00000000  0.30177477  0.25000000  1
  Pb  Pb27  4  0.00000000  0.32335991  0.75000000  1
  Pb  Pb28  4  0.00000000  0.36423479  0.75000000  1
  Pb  Pb29  4  0.00000000  0.38563385  0.25000000  1
  Pb  Pb30  4  0.00000000  0.42614550  0.25000000  1
  Pb  Pb31  4  0.00000000  0.44751196  0.75000000  1
  Pb  Pb32  4  0.00000000  0.48932652  0.75000000  1
