# generated using pymatgen
data_U(TcPb)6
_symmetry_space_group_name_H-M   P-1
_cell_length_a   5.61712616
_cell_length_b   10.60551151
_cell_length_c   15.48330204
_cell_angle_alpha   108.28561896
_cell_angle_beta   99.19463886
_cell_angle_gamma   93.74226884
_symmetry_Int_Tables_number   2
_chemical_formula_structural   U(TcPb)6
_chemical_formula_sum   'U3 Tc18 Pb18'
_cell_volume   857.97184373
_cell_formula_units_Z   3
loop_
 _symmetry_equiv_pos_site_id
 _symmetry_equiv_pos_as_xyz
  1  'x, y, z'
  2  '-x, -y, -z'
loop_
 _atom_site_type_symbol
 _atom_site_label
 _atom_site_symmetry_multiplicity
 _atom_site_fract_x
 _atom_site_fract_y
 _atom_site_fract_z
 _atom_site_occupancy
  U  U0  2  0.33072469  0.83040314  0.66147068  1
  U  U1  1  0.00000000  0.00000000  0.00000000  1
  Tc  Tc2  2  0.17594313  0.41362778  0.36051822  1
  Tc  Tc3  2  0.18449141  0.94806565  0.36044851  1
  Tc  Tc4  2  0.20354339  0.68368739  0.83867238  1
  Tc  Tc5  2  0.20677714  0.15466538  0.84369150  1
  Tc  Tc6  2  0.36271998  0.84386400  0.15974412  1
  Tc  Tc7  2  0.36506364  0.31164241  0.15807574  1
  Tc  Tc8  2  0.49225411  0.23472807  0.99790582  1
  Tc  Tc9  1  0.00000000  0.00000000  0.50000000  1
  Tc  Tc10  1  0.00000000  0.50000000  0.50000000  1
  Tc  Tc11  1  0.50000000  0.00000000  0.50000000  1
  Tc  Tc12  1  0.50000000  0.50000000  0.50000000  1
  Pb  Pb13  2  0.00016243  0.67765945  0.99954984  1
  Pb  Pb14  2  0.10800623  0.60781350  0.21548614  1
  Pb  Pb15  2  0.11384890  0.11418039  0.22805576  1
  Pb  Pb16  2  0.21644987  0.71608216  0.43287798  1
  Pb  Pb17  2  0.23030357  0.22983845  0.46028257  1
  Pb  Pb18  2  0.33661649  0.15755495  0.67306081  1
  Pb  Pb19  2  0.33667042  0.51524968  0.67338882  1
  Pb  Pb20  2  0.44381974  0.44400540  0.88759078  1
  Pb  Pb21  2  0.44433737  0.94334351  0.88867964  1
