# generated using pymatgen
data_U(NbPb)6
_symmetry_space_group_name_H-M   Cmcm
_cell_length_a   10.15206357
_cell_length_b   20.16712862
_cell_length_c   5.80009581
_cell_angle_alpha   90.00000000
_cell_angle_beta   90.00000000
_cell_angle_gamma   90.00000000
_symmetry_Int_Tables_number   63
_chemical_formula_structural   U(NbPb)6
_chemical_formula_sum   'U4 Nb24 Pb24'
_cell_volume   1187.49985303
_cell_formula_units_Z   4
loop_
 _symmetry_equiv_pos_site_id
 _symmetry_equiv_pos_as_xyz
  1  'x, y, z'
  2  '-x, -y, -z'
  3  '-x, -y, z+1/2'
  4  'x, y, -z+1/2'
  5  'x, -y, -z'
  6  '-x, y, z'
  7  '-x, y, -z+1/2'
  8  'x, -y, z+1/2'
  9  'x+1/2, y+1/2, z'
  10  '-x+1/2, -y+1/2, -z'
  11  '-x+1/2, -y+1/2, z+1/2'
  12  'x+1/2, y+1/2, -z+1/2'
  13  'x+1/2, -y+1/2, -z'
  14  '-x+1/2, y+1/2, z'
  15  '-x+1/2, y+1/2, -z+1/2'
  16  'x+1/2, -y+1/2, z+1/2'
loop_
 _atom_site_type_symbol
 _atom_site_label
 _atom_site_symmetry_multiplicity
 _atom_site_fract_x
 _atom_site_fract_y
 _atom_site_fract_z
 _atom_site_occupancy
  U  U0  4  0.00000000  0.12631906  0.25000000  1
  Nb  Nb1  8  0.24143546  0.12535603  0.75000000  1
  Nb  Nb2  8  0.24254348  0.00000000  0.00000000  1
  Nb  Nb3  8  0.25000000  0.25000000  0.00000000  1
  Pb  Pb4  8  0.17048554  0.37582932  0.75000000  1
  Pb  Pb5  4  0.00000000  0.04206480  0.75000000  1
  Pb  Pb6  4  0.00000000  0.20955578  0.75000000  1
  Pb  Pb7  4  0.00000000  0.29251331  0.25000000  1
  Pb  Pb8  4  0.00000000  0.45840594  0.25000000  1
