# generated using pymatgen
data_U(ZnSi)6
_symmetry_space_group_name_H-M   Cmmm
_cell_length_a   5.51678135
_cell_length_b   46.10808495
_cell_length_c   8.31684805
_cell_angle_alpha   90.00000000
_cell_angle_beta   90.00000000
_cell_angle_gamma   90.00000000
_symmetry_Int_Tables_number   65
_chemical_formula_structural   U(ZnSi)6
_chemical_formula_sum   'U10 Zn60 Si60'
_cell_volume   2115.54186251
_cell_formula_units_Z   10
loop_
 _symmetry_equiv_pos_site_id
 _symmetry_equiv_pos_as_xyz
  1  'x, y, z'
  2  '-x, -y, -z'
  3  '-x, -y, z'
  4  'x, y, -z'
  5  'x, -y, -z'
  6  '-x, y, z'
  7  '-x, y, -z'
  8  'x, -y, z'
  9  'x+1/2, y+1/2, z'
  10  '-x+1/2, -y+1/2, -z'
  11  '-x+1/2, -y+1/2, z'
  12  'x+1/2, y+1/2, -z'
  13  'x+1/2, -y+1/2, -z'
  14  '-x+1/2, y+1/2, z'
  15  '-x+1/2, y+1/2, -z'
  16  'x+1/2, -y+1/2, z'
loop_
 _atom_site_type_symbol
 _atom_site_label
 _atom_site_symmetry_multiplicity
 _atom_site_fract_x
 _atom_site_fract_y
 _atom_site_fract_z
 _atom_site_occupancy
  U  U0  4  0.00000000  0.09953716  0.00000000  1
  U  U1  4  0.00000000  0.29937554  0.50000000  1
  U  U2  2  0.00000000  0.50000000  0.00000000  1
  Zn  Zn3  16  0.24651340  0.05013115  0.25045685  1
  Zn  Zn4  16  0.24972309  0.15002164  0.24994297  1
  Zn  Zn5  8  0.00000000  0.19973380  0.23034378  1
  Zn  Zn6  8  0.00000000  0.39970592  0.26793907  1
  Zn  Zn7  8  0.25000000  0.25000000  0.25408120  1
  Zn  Zn8  4  0.00000000  0.00000000  0.24544100  1
  Si  Si9  8  0.00000000  0.10103959  0.35538605  1
  Si  Si10  8  0.00000000  0.30114966  0.14648976  1
  Si  Si11  4  0.00000000  0.02740288  0.50000000  1
  Si  Si12  4  0.00000000  0.03266566  0.00000000  1
  Si  Si13  4  0.00000000  0.16064031  0.00000000  1
  Si  Si14  4  0.00000000  0.17515373  0.50000000  1
  Si  Si15  4  0.00000000  0.22858046  0.50000000  1
  Si  Si16  4  0.00000000  0.23661532  0.00000000  1
  Si  Si17  4  0.00000000  0.36046424  0.50000000  1
  Si  Si18  4  0.00000000  0.37520491  0.00000000  1
  Si  Si19  4  0.00000000  0.42919313  0.00000000  1
  Si  Si20  4  0.00000000  0.43387663  0.50000000  1
  Si  Si21  4  0.00000000  0.50000000  0.34681247  1
