# generated using pymatgen
data_U(GeRu)6
_symmetry_space_group_name_H-M   Immm
_cell_length_a   5.42971356
_cell_length_b   8.05560136
_cell_length_c   28.20785781
_cell_angle_alpha   90.00000000
_cell_angle_beta   90.00000000
_cell_angle_gamma   90.00000000
_symmetry_Int_Tables_number   71
_chemical_formula_structural   U(GeRu)6
_chemical_formula_sum   'U6 Ge36 Ru36'
_cell_volume   1233.80064101
_cell_formula_units_Z   6
loop_
 _symmetry_equiv_pos_site_id
 _symmetry_equiv_pos_as_xyz
  1  'x, y, z'
  2  '-x, -y, -z'
  3  '-x, -y, z'
  4  'x, y, -z'
  5  'x, -y, -z'
  6  '-x, y, z'
  7  '-x, y, -z'
  8  'x, -y, z'
  9  'x+1/2, y+1/2, z+1/2'
  10  '-x+1/2, -y+1/2, -z+1/2'
  11  '-x+1/2, -y+1/2, z+1/2'
  12  'x+1/2, y+1/2, -z+1/2'
  13  'x+1/2, -y+1/2, -z+1/2'
  14  '-x+1/2, y+1/2, z+1/2'
  15  '-x+1/2, y+1/2, -z+1/2'
  16  'x+1/2, -y+1/2, z+1/2'
loop_
 _atom_site_type_symbol
 _atom_site_label
 _atom_site_symmetry_multiplicity
 _atom_site_fract_x
 _atom_site_fract_y
 _atom_site_fract_z
 _atom_site_occupancy
  U  U0  4  0.00000000  0.00000000  0.33291428  1
  U  U1  2  0.00000000  0.50000000  0.00000000  1
  Ge  Ge2  8  0.00000000  0.34435436  0.33354450  1
  Ge  Ge3  4  0.00000000  0.00000000  0.11065571  1
  Ge  Ge4  4  0.00000000  0.00000000  0.22241299  1
  Ge  Ge5  4  0.00000000  0.00000000  0.44423323  1
  Ge  Ge6  4  0.00000000  0.15557573  0.00000000  1
  Ge  Ge7  4  0.00000000  0.50000000  0.11159435  1
  Ge  Ge8  4  0.00000000  0.50000000  0.22175035  1
  Ge  Ge9  4  0.00000000  0.50000000  0.44414899  1
  Ru  Ru10  16  0.24981747  0.25148568  0.08327880  1
  Ru  Ru11  8  0.00000000  0.24718286  0.16658486  1
  Ru  Ru12  8  0.25000000  0.25000000  0.25000000  1
  Ru  Ru13  4  0.00000000  0.24901883  0.50000000  1
