# generated using pymatgen
data_U(ReGe)6
_symmetry_space_group_name_H-M   Cmmm
_cell_length_a   5.32060960
_cell_length_b   46.24948837
_cell_length_c   8.83220084
_cell_angle_alpha   90.00000000
_cell_angle_beta   90.00000000
_cell_angle_gamma   90.00000000
_symmetry_Int_Tables_number   65
_chemical_formula_structural   U(ReGe)6
_chemical_formula_sum   'U10 Re60 Ge60'
_cell_volume   2173.38798690
_cell_formula_units_Z   10
loop_
 _symmetry_equiv_pos_site_id
 _symmetry_equiv_pos_as_xyz
  1  'x, y, z'
  2  '-x, -y, -z'
  3  '-x, -y, z'
  4  'x, y, -z'
  5  'x, -y, -z'
  6  '-x, y, z'
  7  '-x, y, -z'
  8  'x, -y, z'
  9  'x+1/2, y+1/2, z'
  10  '-x+1/2, -y+1/2, -z'
  11  '-x+1/2, -y+1/2, z'
  12  'x+1/2, y+1/2, -z'
  13  'x+1/2, -y+1/2, -z'
  14  '-x+1/2, y+1/2, z'
  15  '-x+1/2, y+1/2, -z'
  16  'x+1/2, -y+1/2, z'
loop_
 _atom_site_type_symbol
 _atom_site_label
 _atom_site_symmetry_multiplicity
 _atom_site_fract_x
 _atom_site_fract_y
 _atom_site_fract_z
 _atom_site_occupancy
  U  U0  4  0.00000000  0.10013446  0.50000000  1
  U  U1  4  0.00000000  0.30012913  0.00000000  1
  U  U2  2  0.00000000  0.50000000  0.50000000  1
  Re  Re3  16  0.24995956  0.45000632  0.24976538  1
  Re  Re4  16  0.24999976  0.35000025  0.25000010  1
  Re  Re5  8  0.00000000  0.19999572  0.24962748  1
  Re  Re6  8  0.00000000  0.39999176  0.25036364  1
  Re  Re7  8  0.25000000  0.25000000  0.25023422  1
  Re  Re8  4  0.00000000  0.00000000  0.24968437  1
  Ge  Ge9  8  0.00000000  0.09993977  0.16767425  1
  Ge  Ge10  8  0.00000000  0.29993907  0.33232963  1
  Ge  Ge11  4  0.00000000  0.03301855  0.00000000  1
  Ge  Ge12  4  0.00000000  0.03309899  0.50000000  1
  Ge  Ge13  4  0.00000000  0.16682464  0.50000000  1
  Ge  Ge14  4  0.00000000  0.16704319  0.00000000  1
  Ge  Ge15  4  0.00000000  0.23303219  0.50000000  1
  Ge  Ge16  4  0.00000000  0.23307499  0.00000000  1
  Ge  Ge17  4  0.00000000  0.36682444  0.00000000  1
  Ge  Ge18  4  0.00000000  0.36704290  0.50000000  1
  Ge  Ge19  4  0.00000000  0.43303096  0.00000000  1
  Ge  Ge20  4  0.00000000  0.43307148  0.50000000  1
  Ge  Ge21  4  0.00000000  0.50000000  0.16770492  1
