# generated using pymatgen
data_U(TiSi)6
_symmetry_space_group_name_H-M   Immm
_cell_length_a   5.42473020
_cell_length_b   8.64212344
_cell_length_c   28.15459198
_cell_angle_alpha   90.00000000
_cell_angle_beta   90.00000000
_cell_angle_gamma   90.00000000
_symmetry_Int_Tables_number   71
_chemical_formula_structural   U(TiSi)6
_chemical_formula_sum   'U6 Ti36 Si36'
_cell_volume   1319.92071967
_cell_formula_units_Z   6
loop_
 _symmetry_equiv_pos_site_id
 _symmetry_equiv_pos_as_xyz
  1  'x, y, z'
  2  '-x, -y, -z'
  3  '-x, -y, z'
  4  'x, y, -z'
  5  'x, -y, -z'
  6  '-x, y, z'
  7  '-x, y, -z'
  8  'x, -y, z'
  9  'x+1/2, y+1/2, z+1/2'
  10  '-x+1/2, -y+1/2, -z+1/2'
  11  '-x+1/2, -y+1/2, z+1/2'
  12  'x+1/2, y+1/2, -z+1/2'
  13  'x+1/2, -y+1/2, -z+1/2'
  14  '-x+1/2, y+1/2, z+1/2'
  15  '-x+1/2, y+1/2, -z+1/2'
  16  'x+1/2, -y+1/2, z+1/2'
loop_
 _atom_site_type_symbol
 _atom_site_label
 _atom_site_symmetry_multiplicity
 _atom_site_fract_x
 _atom_site_fract_y
 _atom_site_fract_z
 _atom_site_occupancy
  U  U0  4  0.00000000  0.50000000  0.16538505  1
  U  U1  2  0.00000000  0.00000000  0.50000000  1
  Ti  Ti2  16  0.24925496  0.24794902  0.08323923  1
  Ti  Ti3  8  0.00000000  0.26371925  0.33329503  1
  Ti  Ti4  8  0.25000000  0.25000000  0.25000000  1
  Ti  Ti5  4  0.00000000  0.24363622  0.00000000  1
  Si  Si6  8  0.00000000  0.17157564  0.16656260  1
  Si  Si7  4  0.00000000  0.00000000  0.05710391  1
  Si  Si8  4  0.00000000  0.00000000  0.28448662  1
  Si  Si9  4  0.00000000  0.00000000  0.38601625  1
  Si  Si10  4  0.00000000  0.32723903  0.50000000  1
  Si  Si11  4  0.00000000  0.50000000  0.05509610  1
  Si  Si12  4  0.00000000  0.50000000  0.27204737  1
  Si  Si13  4  0.00000000  0.50000000  0.39197242  1
