# generated using pymatgen
data_U(CuSi)6
_symmetry_space_group_name_H-M   Cmcm
_cell_length_a   8.01776892
_cell_length_b   70.10340166
_cell_length_c   5.05711297
_cell_angle_alpha   90.00000000
_cell_angle_beta   90.00000000
_cell_angle_gamma   90.00000000
_symmetry_Int_Tables_number   63
_chemical_formula_structural   U(CuSi)6
_chemical_formula_sum   'U16 Cu96 Si96'
_cell_volume   2842.46602813
_cell_formula_units_Z   16
loop_
 _symmetry_equiv_pos_site_id
 _symmetry_equiv_pos_as_xyz
  1  'x, y, z'
  2  '-x, -y, -z'
  3  '-x, -y, z+1/2'
  4  'x, y, -z+1/2'
  5  'x, -y, -z'
  6  '-x, y, z'
  7  '-x, y, -z+1/2'
  8  'x, -y, z+1/2'
  9  'x+1/2, y+1/2, z'
  10  '-x+1/2, -y+1/2, -z'
  11  '-x+1/2, -y+1/2, z+1/2'
  12  'x+1/2, y+1/2, -z+1/2'
  13  'x+1/2, -y+1/2, -z'
  14  '-x+1/2, y+1/2, z'
  15  '-x+1/2, y+1/2, -z+1/2'
  16  'x+1/2, -y+1/2, z+1/2'
loop_
 _atom_site_type_symbol
 _atom_site_label
 _atom_site_symmetry_multiplicity
 _atom_site_fract_x
 _atom_site_fract_y
 _atom_site_fract_z
 _atom_site_occupancy
  U  U0  4  0.00000000  0.09371370  0.25000000  1
  U  U1  4  0.00000000  0.15623656  0.75000000  1
  U  U2  4  0.00000000  0.21865922  0.25000000  1
  U  U3  4  0.00000000  0.46868461  0.25000000  1
  Cu  Cu4  16  0.23205080  0.31247423  0.50029390  1
  Cu  Cu5  16  0.23214809  0.37499799  0.50022134  1
  Cu  Cu6  16  0.24481150  0.43765541  0.00126703  1
  Si  Si7  8  0.14529211  0.03097785  0.75000000  1
  Si  Si8  8  0.14554282  0.28101450  0.75000000  1
  Si  Si9  8  0.14586422  0.34375461  0.25000000  1
  Si  Si10  8  0.14601036  0.40622761  0.75000000  1
  Cu  Cu11  8  0.23256080  0.34374251  0.75000000  1
  Cu  Cu12  8  0.23267233  0.28129203  0.25000000  1
  Cu  Cu13  8  0.23438028  0.40619626  0.25000000  1
  Cu  Cu14  8  0.24127880  0.00000000  0.00000000  1
  Cu  Cu15  8  0.24403756  0.03122978  0.25000000  1
  Cu  Cu16  8  0.25000000  0.25000000  0.00000000  1
  Si  Si17  4  0.00000000  0.01041990  0.25000000  1
  Si  Si18  4  0.00000000  0.05239557  0.25000000  1
  Si  Si19  4  0.00000000  0.07314759  0.75000000  1
  Si  Si20  4  0.00000000  0.11450937  0.75000000  1
  Si  Si21  4  0.00000000  0.13534567  0.25000000  1
  Si  Si22  4  0.00000000  0.17712131  0.25000000  1
  Si  Si23  4  0.00000000  0.19796759  0.75000000  1
  Si  Si24  4  0.00000000  0.23886597  0.75000000  1
  Si  Si25  4  0.00000000  0.25968139  0.25000000  1
  Si  Si26  4  0.00000000  0.30215542  0.25000000  1
  Si  Si27  4  0.00000000  0.32295784  0.75000000  1
  Si  Si28  4  0.00000000  0.36450361  0.75000000  1
  Si  Si29  4  0.00000000  0.38536158  0.25000000  1
  Si  Si30  4  0.00000000  0.42743024  0.25000000  1
  Si  Si31  4  0.00000000  0.44823155  0.75000000  1
  Si  Si32  4  0.00000000  0.48961352  0.75000000  1
