# generated using pymatgen
data_U(AgGe)6
_symmetry_space_group_name_H-M   Cmmm
_cell_length_a   5.76947462
_cell_length_b   49.92274656
_cell_length_c   8.79574957
_cell_angle_alpha   90.00000000
_cell_angle_beta   90.00000000
_cell_angle_gamma   90.00000000
_symmetry_Int_Tables_number   65
_chemical_formula_structural   U(AgGe)6
_chemical_formula_sum   'U10 Ag60 Ge60'
_cell_volume   2533.42232817
_cell_formula_units_Z   10
loop_
 _symmetry_equiv_pos_site_id
 _symmetry_equiv_pos_as_xyz
  1  'x, y, z'
  2  '-x, -y, -z'
  3  '-x, -y, z'
  4  'x, y, -z'
  5  'x, -y, -z'
  6  '-x, y, z'
  7  '-x, y, -z'
  8  'x, -y, z'
  9  'x+1/2, y+1/2, z'
  10  '-x+1/2, -y+1/2, -z'
  11  '-x+1/2, -y+1/2, z'
  12  'x+1/2, y+1/2, -z'
  13  'x+1/2, -y+1/2, -z'
  14  '-x+1/2, y+1/2, z'
  15  '-x+1/2, y+1/2, -z'
  16  'x+1/2, -y+1/2, z'
loop_
 _atom_site_type_symbol
 _atom_site_label
 _atom_site_symmetry_multiplicity
 _atom_site_fract_x
 _atom_site_fract_y
 _atom_site_fract_z
 _atom_site_occupancy
  U  U0  4  0.00000000  0.10004383  0.50000000  1
  U  U1  4  0.00000000  0.30002974  0.00000000  1
  U  U2  2  0.00000000  0.50000000  0.50000000  1
  Ag  Ag3  16  0.24984153  0.05012059  0.24837751  1
  Ag  Ag4  16  0.24993248  0.15002708  0.24986022  1
  Ag  Ag5  8  0.00000000  0.19994039  0.25253247  1
  Ag  Ag6  8  0.00000000  0.39987277  0.24869875  1
  Ag  Ag7  8  0.25000000  0.25000000  0.25085977  1
  Ag  Ag8  4  0.00000000  0.00000000  0.25097774  1
  Ge  Ge9  8  0.00000000  0.09923022  0.13901317  1
  Ge  Ge10  8  0.00000000  0.29909262  0.36101697  1
  Ge  Ge11  4  0.00000000  0.03232603  0.00000000  1
  Ge  Ge12  4  0.00000000  0.03343821  0.50000000  1
  Ge  Ge13  4  0.00000000  0.16458807  0.50000000  1
  Ge  Ge14  4  0.00000000  0.16854668  0.00000000  1
  Ge  Ge15  4  0.00000000  0.23268884  0.00000000  1
  Ge  Ge16  4  0.00000000  0.23397300  0.50000000  1
  Ge  Ge17  4  0.00000000  0.36478185  0.00000000  1
  Ge  Ge18  4  0.00000000  0.36830932  0.50000000  1
  Ge  Ge19  4  0.00000000  0.43234984  0.00000000  1
  Ge  Ge20  4  0.00000000  0.43297763  0.50000000  1
  Ge  Ge21  4  0.00000000  0.50000000  0.13965771  1
