# generated using pymatgen
data_U(CdGe)6
_symmetry_space_group_name_H-M   Cmmm
_cell_length_a   5.85229826
_cell_length_b   50.50679601
_cell_length_c   9.67207675
_cell_angle_alpha   90.00000000
_cell_angle_beta   90.00000000
_cell_angle_gamma   90.00000000
_symmetry_Int_Tables_number   65
_chemical_formula_structural   U(CdGe)6
_chemical_formula_sum   'U10 Cd60 Ge60'
_cell_volume   2858.88051495
_cell_formula_units_Z   10
loop_
 _symmetry_equiv_pos_site_id
 _symmetry_equiv_pos_as_xyz
  1  'x, y, z'
  2  '-x, -y, -z'
  3  '-x, -y, z'
  4  'x, y, -z'
  5  'x, -y, -z'
  6  '-x, y, z'
  7  '-x, y, -z'
  8  'x, -y, z'
  9  'x+1/2, y+1/2, z'
  10  '-x+1/2, -y+1/2, -z'
  11  '-x+1/2, -y+1/2, z'
  12  'x+1/2, y+1/2, -z'
  13  'x+1/2, -y+1/2, -z'
  14  '-x+1/2, y+1/2, z'
  15  '-x+1/2, y+1/2, -z'
  16  'x+1/2, -y+1/2, z'
loop_
 _atom_site_type_symbol
 _atom_site_label
 _atom_site_symmetry_multiplicity
 _atom_site_fract_x
 _atom_site_fract_y
 _atom_site_fract_z
 _atom_site_occupancy
  U  U0  4  0.00000000  0.09846974  0.00000000  1
  U  U1  4  0.00000000  0.29856771  0.50000000  1
  U  U2  2  0.00000000  0.50000000  0.00000000  1
  Cd  Cd3  16  0.24944301  0.45005769  0.24624158  1
  Cd  Cd4  16  0.24997201  0.34998890  0.24997389  1
  Cd  Cd5  8  0.00000000  0.19976473  0.24444865  1
  Cd  Cd6  8  0.00000000  0.39975697  0.25518910  1
  Cd  Cd7  8  0.25000000  0.25000000  0.25480654  1
  Cd  Cd8  4  0.00000000  0.00000000  0.24790034  1
  Ge  Ge9  8  0.00000000  0.09957485  0.31261702  1
  Ge  Ge10  8  0.00000000  0.29951421  0.18670614  1
  Ge  Ge11  4  0.00000000  0.03278938  0.00000000  1
  Ge  Ge12  4  0.00000000  0.03368540  0.50000000  1
  Ge  Ge13  4  0.00000000  0.16041188  0.00000000  1
  Ge  Ge14  4  0.00000000  0.17462029  0.50000000  1
  Ge  Ge15  4  0.00000000  0.23179078  0.50000000  1
  Ge  Ge16  4  0.00000000  0.23523391  0.00000000  1
  Ge  Ge17  4  0.00000000  0.36049665  0.50000000  1
  Ge  Ge18  4  0.00000000  0.37461912  0.00000000  1
  Ge  Ge19  4  0.00000000  0.43210525  0.00000000  1
  Ge  Ge20  4  0.00000000  0.43460815  0.50000000  1
  Ge  Ge21  4  0.00000000  0.50000000  0.31218721  1
