# generated using pymatgen
data_U(PdPb)6
_symmetry_space_group_name_H-M   Cmmm
_cell_length_a   5.76815560
_cell_length_b   50.06336597
_cell_length_c   9.68451470
_cell_angle_alpha   90.00000000
_cell_angle_beta   90.00000000
_cell_angle_gamma   90.00000000
_symmetry_Int_Tables_number   65
_chemical_formula_structural   U(PdPb)6
_chemical_formula_sum   'U10 Pd60 Pb60'
_cell_volume   2796.62912406
_cell_formula_units_Z   10
loop_
 _symmetry_equiv_pos_site_id
 _symmetry_equiv_pos_as_xyz
  1  'x, y, z'
  2  '-x, -y, -z'
  3  '-x, -y, z'
  4  'x, y, -z'
  5  'x, -y, -z'
  6  '-x, y, z'
  7  '-x, y, -z'
  8  'x, -y, z'
  9  'x+1/2, y+1/2, z'
  10  '-x+1/2, -y+1/2, -z'
  11  '-x+1/2, -y+1/2, z'
  12  'x+1/2, y+1/2, -z'
  13  'x+1/2, -y+1/2, -z'
  14  '-x+1/2, y+1/2, z'
  15  '-x+1/2, y+1/2, -z'
  16  'x+1/2, -y+1/2, z'
loop_
 _atom_site_type_symbol
 _atom_site_label
 _atom_site_symmetry_multiplicity
 _atom_site_fract_x
 _atom_site_fract_y
 _atom_site_fract_z
 _atom_site_occupancy
  U  U0  4  0.00000000  0.09995932  0.00000000  1
  U  U1  4  0.00000000  0.29996894  0.50000000  1
  U  U2  2  0.00000000  0.50000000  0.00000000  1
  Pd  Pd3  16  0.24995867  0.05001138  0.24340182  1
  Pd  Pd4  16  0.24999564  0.34999779  0.25000296  1
  Pd  Pd5  8  0.00000000  0.19999324  0.25792525  1
  Pd  Pd6  8  0.00000000  0.39998325  0.24210201  1
  Pd  Pd7  8  0.25000000  0.25000000  0.25660347  1
  Pd  Pd8  4  0.00000000  0.00000000  0.24321339  1
  Pb  Pb9  8  0.00000000  0.09993405  0.32725652  1
  Pb  Pb10  8  0.00000000  0.29992987  0.17272877  1
  Pb  Pb11  4  0.00000000  0.03324609  0.50000000  1
  Pb  Pb12  4  0.00000000  0.03326435  0.00000000  1
  Pb  Pb13  4  0.00000000  0.16665928  0.00000000  1
  Pb  Pb14  4  0.00000000  0.16674716  0.50000000  1
  Pb  Pb15  4  0.00000000  0.23323609  0.50000000  1
  Pb  Pb16  4  0.00000000  0.23325252  0.00000000  1
  Pb  Pb17  4  0.00000000  0.36665847  0.50000000  1
  Pb  Pb18  4  0.00000000  0.36673868  0.00000000  1
  Pb  Pb19  4  0.00000000  0.43323774  0.00000000  1
  Pb  Pb20  4  0.00000000  0.43323967  0.50000000  1
  Pb  Pb21  4  0.00000000  0.50000000  0.32751309  1
