# generated using pymatgen
data_U(CrGe)6
_symmetry_space_group_name_H-M   Cmmm
_cell_length_a   5.10508212
_cell_length_b   44.16588998
_cell_length_c   8.28770960
_cell_angle_alpha   90.00000000
_cell_angle_beta   90.00000000
_cell_angle_gamma   90.00000000
_symmetry_Int_Tables_number   65
_chemical_formula_structural   U(CrGe)6
_chemical_formula_sum   'U10 Cr60 Ge60'
_cell_volume   1868.63398847
_cell_formula_units_Z   10
loop_
 _symmetry_equiv_pos_site_id
 _symmetry_equiv_pos_as_xyz
  1  'x, y, z'
  2  '-x, -y, -z'
  3  '-x, -y, z'
  4  'x, y, -z'
  5  'x, -y, -z'
  6  '-x, y, z'
  7  '-x, y, -z'
  8  'x, -y, z'
  9  'x+1/2, y+1/2, z'
  10  '-x+1/2, -y+1/2, -z'
  11  '-x+1/2, -y+1/2, z'
  12  'x+1/2, y+1/2, -z'
  13  'x+1/2, -y+1/2, -z'
  14  '-x+1/2, y+1/2, z'
  15  '-x+1/2, y+1/2, -z'
  16  'x+1/2, -y+1/2, z'
loop_
 _atom_site_type_symbol
 _atom_site_label
 _atom_site_symmetry_multiplicity
 _atom_site_fract_x
 _atom_site_fract_y
 _atom_site_fract_z
 _atom_site_occupancy
  U  U0  4  0.00000000  0.19911895  0.50000000  1
  U  U1  4  0.00000000  0.39906864  0.00000000  1
  U  U2  2  0.00000000  0.00000000  0.00000000  1
  Cr  Cr3  16  0.24981589  0.04996401  0.25019136  1
  Cr  Cr4  16  0.24997526  0.35000701  0.24999814  1
  Cr  Cr5  8  0.00000000  0.10008702  0.24692716  1
  Cr  Cr6  8  0.00000000  0.30006772  0.25317484  1
  Cr  Cr7  8  0.25000000  0.25000000  0.24972616  1
  Cr  Cr8  4  0.00000000  0.50000000  0.24979784  1
  Ge  Ge9  8  0.00000000  0.20033855  0.15731903  1
  Ge  Ge10  8  0.00000000  0.40035286  0.34266246  1
  Ge  Ge11  4  0.00000000  0.00000000  0.34326818  1
  Ge  Ge12  4  0.00000000  0.06680821  0.50000000  1
  Ge  Ge13  4  0.00000000  0.06681522  0.00000000  1
  Ge  Ge14  4  0.00000000  0.13186686  0.50000000  1
  Ge  Ge15  4  0.00000000  0.13469282  0.00000000  1
  Ge  Ge16  4  0.00000000  0.26660419  0.50000000  1
  Ge  Ge17  4  0.00000000  0.26684602  0.00000000  1
  Ge  Ge18  4  0.00000000  0.33185331  0.00000000  1
  Ge  Ge19  4  0.00000000  0.33467705  0.50000000  1
  Ge  Ge20  4  0.00000000  0.46650402  0.00000000  1
  Ge  Ge21  4  0.00000000  0.46686559  0.50000000  1
