# generated using pymatgen
data_U(SiHg)6
_symmetry_space_group_name_H-M   Cmmm
_cell_length_a   6.22117172
_cell_length_b   54.79684923
_cell_length_c   7.92597007
_cell_angle_alpha   90.00000000
_cell_angle_beta   90.00000000
_cell_angle_gamma   90.00000000
_symmetry_Int_Tables_number   65
_chemical_formula_structural   U(SiHg)6
_chemical_formula_sum   'U10 Si60 Hg60'
_cell_volume   2701.96802135
_cell_formula_units_Z   10
loop_
 _symmetry_equiv_pos_site_id
 _symmetry_equiv_pos_as_xyz
  1  'x, y, z'
  2  '-x, -y, -z'
  3  '-x, -y, z'
  4  'x, y, -z'
  5  'x, -y, -z'
  6  '-x, y, z'
  7  '-x, y, -z'
  8  'x, -y, z'
  9  'x+1/2, y+1/2, z'
  10  '-x+1/2, -y+1/2, -z'
  11  '-x+1/2, -y+1/2, z'
  12  'x+1/2, y+1/2, -z'
  13  'x+1/2, -y+1/2, -z'
  14  '-x+1/2, y+1/2, z'
  15  '-x+1/2, y+1/2, -z'
  16  'x+1/2, -y+1/2, z'
loop_
 _atom_site_type_symbol
 _atom_site_label
 _atom_site_symmetry_multiplicity
 _atom_site_fract_x
 _atom_site_fract_y
 _atom_site_fract_z
 _atom_site_occupancy
  U  U0  4  0.00000000  0.19999476  0.00000000  1
  U  U1  4  0.00000000  0.40001017  0.50000000  1
  U  U2  2  0.00000000  0.00000000  0.50000000  1
  Si  Si3  8  0.00000000  0.20014189  0.35105662  1
  Si  Si4  8  0.00000000  0.40021360  0.14895487  1
  Si  Si5  4  0.00000000  0.00000000  0.14857822  1
  Si  Si6  4  0.00000000  0.06692209  0.00000000  1
  Si  Si7  4  0.00000000  0.06737956  0.50000000  1
  Si  Si8  4  0.00000000  0.12870239  0.50000000  1
  Si  Si9  4  0.00000000  0.14003863  0.00000000  1
  Si  Si10  4  0.00000000  0.26713530  0.50000000  1
  Si  Si11  4  0.00000000  0.26729763  0.00000000  1
  Si  Si12  4  0.00000000  0.32873279  0.00000000  1
  Si  Si13  4  0.00000000  0.34008282  0.50000000  1
  Si  Si14  4  0.00000000  0.46689876  0.50000000  1
  Si  Si15  4  0.00000000  0.46693087  0.00000000  1
  Hg  Hg16  16  0.24946272  0.04982514  0.25242942  1
  Hg  Hg17  16  0.24999583  0.64999890  0.24997350  1
  Hg  Hg18  8  0.00000000  0.09934098  0.24616491  1
  Hg  Hg19  8  0.00000000  0.29935566  0.25360866  1
  Hg  Hg20  8  0.25000000  0.25000000  0.24913995  1
  Hg  Hg21  4  0.00000000  0.50000000  0.25335635  1
