# generated using pymatgen
data_U(SiRu)6
_symmetry_space_group_name_H-M   Cmcm
_cell_length_a   7.72846098
_cell_length_b   74.37300671
_cell_length_c   5.36339112
_cell_angle_alpha   90.00000000
_cell_angle_beta   90.00000000
_cell_angle_gamma   90.00000000
_symmetry_Int_Tables_number   63
_chemical_formula_structural   U(SiRu)6
_chemical_formula_sum   'U16 Si96 Ru96'
_cell_volume   3082.81757757
_cell_formula_units_Z   16
loop_
 _symmetry_equiv_pos_site_id
 _symmetry_equiv_pos_as_xyz
  1  'x, y, z'
  2  '-x, -y, -z'
  3  '-x, -y, z+1/2'
  4  'x, y, -z+1/2'
  5  'x, -y, -z'
  6  '-x, y, z'
  7  '-x, y, -z+1/2'
  8  'x, -y, z+1/2'
  9  'x+1/2, y+1/2, z'
  10  '-x+1/2, -y+1/2, -z'
  11  '-x+1/2, -y+1/2, z+1/2'
  12  'x+1/2, y+1/2, -z+1/2'
  13  'x+1/2, -y+1/2, -z'
  14  '-x+1/2, y+1/2, z'
  15  '-x+1/2, y+1/2, -z+1/2'
  16  'x+1/2, -y+1/2, z+1/2'
loop_
 _atom_site_type_symbol
 _atom_site_label
 _atom_site_symmetry_multiplicity
 _atom_site_fract_x
 _atom_site_fract_y
 _atom_site_fract_z
 _atom_site_occupancy
  U  U0  4  0.00000000  0.03128175  0.75000000  1
  U  U1  4  0.00000000  0.28135134  0.75000000  1
  U  U2  4  0.00000000  0.34374727  0.25000000  1
  U  U3  4  0.00000000  0.40626501  0.75000000  1
  Si  Si4  8  0.15318424  0.15622784  0.75000000  1
  Si  Si5  8  0.15364100  0.21870813  0.25000000  1
  Si  Si6  8  0.15368113  0.90604866  0.75000000  1
  Si  Si7  8  0.15394376  0.46876960  0.25000000  1
  Si  Si8  4  0.00000000  0.01044469  0.25000000  1
  Si  Si9  4  0.00000000  0.05205281  0.25000000  1
  Si  Si10  4  0.00000000  0.07295383  0.75000000  1
  Si  Si11  4  0.00000000  0.11457563  0.75000000  1
  Si  Si12  4  0.00000000  0.13543085  0.25000000  1
  Si  Si13  4  0.00000000  0.17711864  0.25000000  1
  Si  Si14  4  0.00000000  0.19787751  0.75000000  1
  Si  Si15  4  0.00000000  0.23981784  0.75000000  1
  Si  Si16  4  0.00000000  0.26052650  0.25000000  1
  Si  Si17  4  0.00000000  0.30205415  0.25000000  1
  Si  Si18  4  0.00000000  0.32289415  0.75000000  1
  Si  Si19  4  0.00000000  0.36455455  0.75000000  1
  Si  Si20  4  0.00000000  0.38545534  0.25000000  1
  Si  Si21  4  0.00000000  0.42706490  0.25000000  1
  Si  Si22  4  0.00000000  0.44788627  0.75000000  1
  Si  Si23  4  0.00000000  0.48962468  0.75000000  1
  Ru  Ru24  16  0.24244023  0.12502775  0.50008607  1
  Ru  Ru25  16  0.24276899  0.18753802  0.50008971  1
  Ru  Ru26  16  0.24647581  0.06256838  0.50020743  1
  Ru  Ru27  8  0.23997843  0.21878407  0.75000000  1
  Ru  Ru28  8  0.24253262  0.15627750  0.25000000  1
  Ru  Ru29  8  0.24353773  0.09382964  0.75000000  1
  Ru  Ru30  8  0.24870895  0.50000000  0.00000000  1
  Ru  Ru31  8  0.24952964  0.03127030  0.25000000  1
  Ru  Ru32  8  0.25000000  0.25000000  0.00000000  1
