# generated using pymatgen
data_U(CoSn)6
_symmetry_space_group_name_H-M   Cmcm
_cell_length_a   8.82068962
_cell_length_b   73.28087628
_cell_length_c   5.29173578
_cell_angle_alpha   90.00000000
_cell_angle_beta   90.00000000
_cell_angle_gamma   90.00000000
_symmetry_Int_Tables_number   63
_chemical_formula_structural   U(CoSn)6
_chemical_formula_sum   'U16 Co96 Sn96'
_cell_volume   3420.51379061
_cell_formula_units_Z   16
loop_
 _symmetry_equiv_pos_site_id
 _symmetry_equiv_pos_as_xyz
  1  'x, y, z'
  2  '-x, -y, -z'
  3  '-x, -y, z+1/2'
  4  'x, y, -z+1/2'
  5  'x, -y, -z'
  6  '-x, y, z'
  7  '-x, y, -z+1/2'
  8  'x, -y, z+1/2'
  9  'x+1/2, y+1/2, z'
  10  '-x+1/2, -y+1/2, -z'
  11  '-x+1/2, -y+1/2, z+1/2'
  12  'x+1/2, y+1/2, -z+1/2'
  13  'x+1/2, -y+1/2, -z'
  14  '-x+1/2, y+1/2, z'
  15  '-x+1/2, y+1/2, -z+1/2'
  16  'x+1/2, -y+1/2, z+1/2'
loop_
 _atom_site_type_symbol
 _atom_site_label
 _atom_site_symmetry_multiplicity
 _atom_site_fract_x
 _atom_site_fract_y
 _atom_site_fract_z
 _atom_site_occupancy
  U  U0  4  0.00000000  0.03221065  0.25000000  1
  U  U1  4  0.00000000  0.28051326  0.25000000  1
  U  U2  4  0.00000000  0.34373605  0.75000000  1
  U  U3  4  0.00000000  0.40690783  0.25000000  1
  Co  Co4  16  0.24846249  0.93771859  0.50189512  1
  Co  Co5  16  0.24993780  0.37500548  0.50005015  1
  Co  Co6  16  0.24999151  0.31249103  0.50016482  1
  Co  Co7  8  0.24440824  0.03126512  0.75000000  1
  Co  Co8  8  0.24638565  0.40627957  0.75000000  1
  Co  Co9  8  0.24709790  0.28123158  0.75000000  1
  Co  Co10  8  0.24792668  0.00000000  0.00000000  1
  Co  Co11  8  0.24963262  0.34374340  0.25000000  1
  Co  Co12  8  0.25000000  0.25000000  0.00000000  1
  Sn  Sn13  8  0.16439770  0.15625674  0.25000000  1
  Sn  Sn14  8  0.16515491  0.21871470  0.75000000  1
  Sn  Sn15  8  0.16555767  0.90624521  0.25000000  1
  Sn  Sn16  8  0.16575680  0.46892653  0.75000000  1
  Sn  Sn17  4  0.00000000  0.01038016  0.75000000  1
  Sn  Sn18  4  0.00000000  0.05330470  0.75000000  1
  Sn  Sn19  4  0.00000000  0.07429541  0.25000000  1
  Sn  Sn20  4  0.00000000  0.11496557  0.25000000  1
  Sn  Sn21  4  0.00000000  0.13548214  0.75000000  1
  Sn  Sn22  4  0.00000000  0.17706665  0.75000000  1
  Sn  Sn23  4  0.00000000  0.19762248  0.25000000  1
  Sn  Sn24  4  0.00000000  0.23848346  0.25000000  1
  Sn  Sn25  4  0.00000000  0.25942014  0.75000000  1
  Sn  Sn26  4  0.00000000  0.30189729  0.75000000  1
  Sn  Sn27  4  0.00000000  0.32272646  0.25000000  1
  Sn  Sn28  4  0.00000000  0.36473531  0.25000000  1
  Sn  Sn29  4  0.00000000  0.38559074  0.75000000  1
  Sn  Sn30  4  0.00000000  0.42820586  0.75000000  1
  Sn  Sn31  4  0.00000000  0.44904242  0.25000000  1
  Sn  Sn32  4  0.00000000  0.48981806  0.25000000  1
