# generated using pymatgen
data_U(CdSi)6
_symmetry_space_group_name_H-M   Cmcm
_cell_length_a   8.47959992
_cell_length_b   81.41216040
_cell_length_c   5.94190482
_cell_angle_alpha   90.00000000
_cell_angle_beta   90.00000000
_cell_angle_gamma   90.00000000
_symmetry_Int_Tables_number   63
_chemical_formula_structural   U(CdSi)6
_chemical_formula_sum   'U16 Cd96 Si96'
_cell_volume   4101.94971537
_cell_formula_units_Z   16
loop_
 _symmetry_equiv_pos_site_id
 _symmetry_equiv_pos_as_xyz
  1  'x, y, z'
  2  '-x, -y, -z'
  3  '-x, -y, z+1/2'
  4  'x, y, -z+1/2'
  5  'x, -y, -z'
  6  '-x, y, z'
  7  '-x, y, -z+1/2'
  8  'x, -y, z+1/2'
  9  'x+1/2, y+1/2, z'
  10  '-x+1/2, -y+1/2, -z'
  11  '-x+1/2, -y+1/2, z+1/2'
  12  'x+1/2, y+1/2, -z+1/2'
  13  'x+1/2, -y+1/2, -z'
  14  '-x+1/2, y+1/2, z'
  15  '-x+1/2, y+1/2, -z+1/2'
  16  'x+1/2, -y+1/2, z+1/2'
loop_
 _atom_site_type_symbol
 _atom_site_label
 _atom_site_symmetry_multiplicity
 _atom_site_fract_x
 _atom_site_fract_y
 _atom_site_fract_z
 _atom_site_occupancy
  U  U0  4  0.00000000  0.09437945  0.25000000  1
  U  U1  4  0.00000000  0.15623376  0.75000000  1
  U  U2  4  0.00000000  0.21789453  0.25000000  1
  U  U3  4  0.00000000  0.46916170  0.25000000  1
  Cd  Cd4  16  0.24596041  0.81235495  0.50050016  1
  Cd  Cd5  16  0.24618826  0.87509351  0.50028596  1
  Cd  Cd6  16  0.24894999  0.43761572  0.50020768  1
  Cd  Cd7  8  0.23385786  0.28119378  0.25000000  1
  Cd  Cd8  8  0.23679916  0.40626461  0.25000000  1
  Cd  Cd9  8  0.23797486  0.96875924  0.75000000  1
  Cd  Cd10  8  0.24296170  0.50000000  0.00000000  1
  Cd  Cd11  8  0.24912449  0.34374284  0.75000000  1
  Cd  Cd12  8  0.25000000  0.25000000  0.00000000  1
  Si  Si13  8  0.13433684  0.34380930  0.25000000  1
  Si  Si14  8  0.13545853  0.96957873  0.25000000  1
  Si  Si15  8  0.13585878  0.40546459  0.75000000  1
  Si  Si16  8  0.13592679  0.28172053  0.75000000  1
  Si  Si17  4  0.00000000  0.00847003  0.25000000  1
  Si  Si18  4  0.00000000  0.05682275  0.25000000  1
  Si  Si19  4  0.00000000  0.07568920  0.75000000  1
  Si  Si20  4  0.00000000  0.11357693  0.75000000  1
  Si  Si21  4  0.00000000  0.13598253  0.25000000  1
  Si  Si22  4  0.00000000  0.17647546  0.25000000  1
  Si  Si23  4  0.00000000  0.19910320  0.75000000  1
  Si  Si24  4  0.00000000  0.23633170  0.75000000  1
  Si  Si25  4  0.00000000  0.25545239  0.25000000  1
  Si  Si26  4  0.00000000  0.30474760  0.25000000  1
  Si  Si27  4  0.00000000  0.32292070  0.75000000  1
  Si  Si28  4  0.00000000  0.36458454  0.75000000  1
  Si  Si29  4  0.00000000  0.38297313  0.25000000  1
  Si  Si30  4  0.00000000  0.43126088  0.25000000  1
  Si  Si31  4  0.00000000  0.45070063  0.75000000  1
  Si  Si32  4  0.00000000  0.48801951  0.75000000  1
