# generated using pymatgen
data_U(MoPb)6
_symmetry_space_group_name_H-M   Cmcm
_cell_length_a   10.42529531
_cell_length_b   38.27362163
_cell_length_c   5.54952707
_cell_angle_alpha   90.00000000
_cell_angle_beta   90.00000000
_cell_angle_gamma   90.00000000
_symmetry_Int_Tables_number   63
_chemical_formula_structural   U(MoPb)6
_chemical_formula_sum   'U8 Mo48 Pb48'
_cell_volume   2214.33793124
_cell_formula_units_Z   8
loop_
 _symmetry_equiv_pos_site_id
 _symmetry_equiv_pos_as_xyz
  1  'x, y, z'
  2  '-x, -y, -z'
  3  '-x, -y, z+1/2'
  4  'x, y, -z+1/2'
  5  'x, -y, -z'
  6  '-x, y, z'
  7  '-x, y, -z+1/2'
  8  'x, -y, z+1/2'
  9  'x+1/2, y+1/2, z'
  10  '-x+1/2, -y+1/2, -z'
  11  '-x+1/2, -y+1/2, z+1/2'
  12  'x+1/2, y+1/2, -z+1/2'
  13  'x+1/2, -y+1/2, -z'
  14  '-x+1/2, y+1/2, z'
  15  '-x+1/2, y+1/2, -z+1/2'
  16  'x+1/2, -y+1/2, z+1/2'
loop_
 _atom_site_type_symbol
 _atom_site_label
 _atom_site_symmetry_multiplicity
 _atom_site_fract_x
 _atom_site_fract_y
 _atom_site_fract_z
 _atom_site_occupancy
  U  U0  4  0.00000000  0.30846869  0.75000000  1
  U  U1  4  0.00000000  0.43578876  0.25000000  1
  Mo  Mo2  16  0.23145324  0.37601681  0.01699916  1
  Mo  Mo3  8  0.23032227  0.30978049  0.25000000  1
  Mo  Mo4  8  0.23081722  0.50000000  0.00000000  1
  Mo  Mo5  8  0.23119397  0.43728768  0.75000000  1
  Mo  Mo6  8  0.25000000  0.25000000  0.00000000  1
  Pb  Pb7  8  0.17892300  0.06126070  0.75000000  1
  Pb  Pb8  8  0.18342168  0.18491956  0.25000000  1
  Pb  Pb9  4  0.00000000  0.02076346  0.25000000  1
  Pb  Pb10  4  0.00000000  0.10330539  0.25000000  1
  Pb  Pb11  4  0.00000000  0.14299084  0.75000000  1
  Pb  Pb12  4  0.00000000  0.22467402  0.75000000  1
  Pb  Pb13  4  0.00000000  0.26571019  0.25000000  1
  Pb  Pb14  4  0.00000000  0.35108537  0.25000000  1
  Pb  Pb15  4  0.00000000  0.39372769  0.75000000  1
  Pb  Pb16  4  0.00000000  0.47874455  0.75000000  1
