# generated using pymatgen
data_U(CdPb)6
_symmetry_space_group_name_H-M   Cmmm
_cell_length_a   6.00376946
_cell_length_b   52.83728153
_cell_length_c   10.91848276
_cell_angle_alpha   90.00000000
_cell_angle_beta   90.00000000
_cell_angle_gamma   90.00000000
_symmetry_Int_Tables_number   65
_chemical_formula_structural   U(CdPb)6
_chemical_formula_sum   'U10 Cd60 Pb60'
_cell_volume   3463.59229702
_cell_formula_units_Z   10
loop_
 _symmetry_equiv_pos_site_id
 _symmetry_equiv_pos_as_xyz
  1  'x, y, z'
  2  '-x, -y, -z'
  3  '-x, -y, z'
  4  'x, y, -z'
  5  'x, -y, -z'
  6  '-x, y, z'
  7  '-x, y, -z'
  8  'x, -y, z'
  9  'x+1/2, y+1/2, z'
  10  '-x+1/2, -y+1/2, -z'
  11  '-x+1/2, -y+1/2, z'
  12  'x+1/2, y+1/2, -z'
  13  'x+1/2, -y+1/2, -z'
  14  '-x+1/2, y+1/2, z'
  15  '-x+1/2, y+1/2, -z'
  16  'x+1/2, -y+1/2, z'
loop_
 _atom_site_type_symbol
 _atom_site_label
 _atom_site_symmetry_multiplicity
 _atom_site_fract_x
 _atom_site_fract_y
 _atom_site_fract_z
 _atom_site_occupancy
  U  U0  4  0.00000000  0.20095487  0.50000000  1
  U  U1  4  0.00000000  0.40128157  0.00000000  1
  U  U2  2  0.00000000  0.00000000  0.00000000  1
  Cd  Cd3  16  0.24980729  0.04991316  0.23741161  1
  Cd  Cd4  16  0.24987179  0.15000725  0.25008702  1
  Cd  Cd5  8  0.00000000  0.09989669  0.23629015  1
  Cd  Cd6  8  0.00000000  0.29999168  0.26353670  1
  Cd  Cd7  8  0.25000000  0.25000000  0.26250620  1
  Cd  Cd8  4  0.00000000  0.50000000  0.23636188  1
  Pb  Pb9  8  0.00000000  0.20071415  0.19856754  1
  Pb  Pb10  8  0.00000000  0.40076509  0.30116410  1
  Pb  Pb11  4  0.00000000  0.00000000  0.30094238  1
  Pb  Pb12  4  0.00000000  0.06604115  0.00000000  1
  Pb  Pb13  4  0.00000000  0.06645282  0.50000000  1
  Pb  Pb14  4  0.00000000  0.13063745  0.00000000  1
  Pb  Pb15  4  0.00000000  0.13722492  0.50000000  1
  Pb  Pb16  4  0.00000000  0.26627016  0.00000000  1
  Pb  Pb17  4  0.00000000  0.26644389  0.50000000  1
  Pb  Pb18  4  0.00000000  0.33078016  0.50000000  1
  Pb  Pb19  4  0.00000000  0.33736988  0.00000000  1
  Pb  Pb20  4  0.00000000  0.46661996  0.50000000  1
  Pb  Pb21  4  0.00000000  0.46705547  0.00000000  1
