# generated using pymatgen
data_U(SiW)6
_symmetry_space_group_name_H-M   Cmcm
_cell_length_a   8.34875605
_cell_length_b   37.46559354
_cell_length_c   5.39042388
_cell_angle_alpha   90.00000000
_cell_angle_beta   90.00000000
_cell_angle_gamma   90.00000000
_symmetry_Int_Tables_number   63
_chemical_formula_structural   U(SiW)6
_chemical_formula_sum   'U8 Si48 W48'
_cell_volume   1686.07662133
_cell_formula_units_Z   8
loop_
 _symmetry_equiv_pos_site_id
 _symmetry_equiv_pos_as_xyz
  1  'x, y, z'
  2  '-x, -y, -z'
  3  '-x, -y, z+1/2'
  4  'x, y, -z+1/2'
  5  'x, -y, -z'
  6  '-x, y, z'
  7  '-x, y, -z+1/2'
  8  'x, -y, z+1/2'
  9  'x+1/2, y+1/2, z'
  10  '-x+1/2, -y+1/2, -z'
  11  '-x+1/2, -y+1/2, z+1/2'
  12  'x+1/2, y+1/2, -z+1/2'
  13  'x+1/2, -y+1/2, -z'
  14  '-x+1/2, y+1/2, z'
  15  '-x+1/2, y+1/2, -z+1/2'
  16  'x+1/2, -y+1/2, z+1/2'
loop_
 _atom_site_type_symbol
 _atom_site_label
 _atom_site_symmetry_multiplicity
 _atom_site_fract_x
 _atom_site_fract_y
 _atom_site_fract_z
 _atom_site_occupancy
  U  U0  4  0.00000000  0.06375387  0.75000000  1
  U  U1  4  0.00000000  0.18753022  0.25000000  1
  Si  Si2  8  0.16258848  0.31326363  0.75000000  1
  Si  Si3  8  0.16433664  0.44049833  0.25000000  1
  Si  Si4  4  0.00000000  0.02182684  0.25000000  1
  Si  Si5  4  0.00000000  0.10498742  0.25000000  1
  Si  Si6  4  0.00000000  0.14634387  0.75000000  1
  Si  Si7  4  0.00000000  0.22654557  0.75000000  1
  Si  Si8  4  0.00000000  0.26906854  0.25000000  1
  Si  Si9  4  0.00000000  0.35406799  0.25000000  1
  Si  Si10  4  0.00000000  0.39642959  0.75000000  1
  Si  Si11  4  0.00000000  0.47861419  0.75000000  1
  W  W12  16  0.24557261  0.37486315  0.00001919  1
  W  W13  8  0.24528326  0.31240762  0.25000000  1
  W  W14  8  0.24771409  0.43729757  0.75000000  1
  W  W15  8  0.24950759  0.50000000  0.00000000  1
  W  W16  8  0.25000000  0.25000000  0.00000000  1
