# generated using pymatgen
data_U(SnIr)6
_symmetry_space_group_name_H-M   Cmcm
_cell_length_a   9.03580084
_cell_length_b   77.19793864
_cell_length_c   5.57090756
_cell_angle_alpha   90.00000000
_cell_angle_beta   90.00000000
_cell_angle_gamma   90.00000000
_symmetry_Int_Tables_number   63
_chemical_formula_structural   U(SnIr)6
_chemical_formula_sum   'U16 Sn96 Ir96'
_cell_volume   3885.95982269
_cell_formula_units_Z   16
loop_
 _symmetry_equiv_pos_site_id
 _symmetry_equiv_pos_as_xyz
  1  'x, y, z'
  2  '-x, -y, -z'
  3  '-x, -y, z+1/2'
  4  'x, y, -z+1/2'
  5  'x, -y, -z'
  6  '-x, y, z'
  7  '-x, y, -z+1/2'
  8  'x, -y, z+1/2'
  9  'x+1/2, y+1/2, z'
  10  '-x+1/2, -y+1/2, -z'
  11  '-x+1/2, -y+1/2, z+1/2'
  12  'x+1/2, y+1/2, -z+1/2'
  13  'x+1/2, -y+1/2, -z'
  14  '-x+1/2, y+1/2, z'
  15  '-x+1/2, y+1/2, -z+1/2'
  16  'x+1/2, -y+1/2, z+1/2'
loop_
 _atom_site_type_symbol
 _atom_site_label
 _atom_site_symmetry_multiplicity
 _atom_site_fract_x
 _atom_site_fract_y
 _atom_site_fract_z
 _atom_site_occupancy
  U  U0  4  0.00000000  0.09385520  0.25000000  1
  U  U1  4  0.00000000  0.15623594  0.75000000  1
  U  U2  4  0.00000000  0.21855704  0.25000000  1
  U  U3  4  0.00000000  0.46863138  0.25000000  1
  Sn  Sn4  8  0.16821157  0.28103510  0.75000000  1
  Sn  Sn5  8  0.16824636  0.59364524  0.25000000  1
  Sn  Sn6  8  0.16860078  0.34375871  0.25000000  1
  Sn  Sn7  8  0.16988491  0.03124117  0.75000000  1
  Sn  Sn8  4  0.00000000  0.01042813  0.25000000  1
  Sn  Sn9  4  0.00000000  0.05224810  0.25000000  1
  Sn  Sn10  4  0.00000000  0.07296060  0.75000000  1
  Sn  Sn11  4  0.00000000  0.11459682  0.75000000  1
  Sn  Sn12  4  0.00000000  0.13542891  0.25000000  1
  Sn  Sn13  4  0.00000000  0.17707219  0.25000000  1
  Sn  Sn14  4  0.00000000  0.19788730  0.75000000  1
  Sn  Sn15  4  0.00000000  0.23932754  0.75000000  1
  Sn  Sn16  4  0.00000000  0.26009062  0.25000000  1
  Sn  Sn17  4  0.00000000  0.30201884  0.25000000  1
  Sn  Sn18  4  0.00000000  0.32287416  0.75000000  1
  Sn  Sn19  4  0.00000000  0.36459606  0.75000000  1
  Sn  Sn20  4  0.00000000  0.38544968  0.25000000  1
  Sn  Sn21  4  0.00000000  0.42701445  0.25000000  1
  Sn  Sn22  4  0.00000000  0.44776781  0.75000000  1
  Sn  Sn23  4  0.00000000  0.48962736  0.75000000  1
  Ir  Ir24  16  0.24606472  0.43757955  0.00112690  1
  Ir  Ir25  16  0.24855195  0.31246502  0.50014816  1
  Ir  Ir26  16  0.24870981  0.62498439  0.00017904  1
  Ir  Ir27  8  0.24168728  0.46869109  0.75000000  1
  Ir  Ir28  8  0.24438698  0.50000000  0.00000000  1
  Ir  Ir29  8  0.24860528  0.34374650  0.75000000  1
  Ir  Ir30  8  0.24864709  0.09376420  0.75000000  1
  Ir  Ir31  8  0.24907413  0.28123565  0.25000000  1
  Ir  Ir32  8  0.25000000  0.25000000  0.00000000  1
