# generated using pymatgen
data_Zr6UPb6
_symmetry_space_group_name_H-M   Cmcm
_cell_length_a   10.38531144
_cell_length_b   83.53430591
_cell_length_c   6.02690604
_cell_angle_alpha   90.00000000
_cell_angle_beta   90.00000000
_cell_angle_gamma   90.00000000
_symmetry_Int_Tables_number   63
_chemical_formula_structural   Zr6UPb6
_chemical_formula_sum   'Zr96 U16 Pb96'
_cell_volume   5228.52048862
_cell_formula_units_Z   16
loop_
 _symmetry_equiv_pos_site_id
 _symmetry_equiv_pos_as_xyz
  1  'x, y, z'
  2  '-x, -y, -z'
  3  '-x, -y, z+1/2'
  4  'x, y, -z+1/2'
  5  'x, -y, -z'
  6  '-x, y, z'
  7  '-x, y, -z+1/2'
  8  'x, -y, z+1/2'
  9  'x+1/2, y+1/2, z'
  10  '-x+1/2, -y+1/2, -z'
  11  '-x+1/2, -y+1/2, z+1/2'
  12  'x+1/2, y+1/2, -z+1/2'
  13  'x+1/2, -y+1/2, -z'
  14  '-x+1/2, y+1/2, z'
  15  '-x+1/2, y+1/2, -z+1/2'
  16  'x+1/2, -y+1/2, z+1/2'
loop_
 _atom_site_type_symbol
 _atom_site_label
 _atom_site_symmetry_multiplicity
 _atom_site_fract_x
 _atom_site_fract_y
 _atom_site_fract_z
 _atom_site_occupancy
  Zr  Zr0  16  0.24883213  0.43754029  0.50051055  1
  Zr  Zr1  16  0.24900893  0.12497315  0.50009774  1
  Zr  Zr2  16  0.24905570  0.81245980  0.00015301  1
  Zr  Zr3  8  0.24585835  0.46871223  0.25000000  1
  Zr  Zr4  8  0.24689840  0.50000000  0.00000000  1
  Zr  Zr5  8  0.24816035  0.09373939  0.25000000  1
  Zr  Zr6  8  0.24886542  0.84375547  0.25000000  1
  Zr  Zr7  8  0.24906425  0.21879790  0.25000000  1
  Zr  Zr8  8  0.25000000  0.25000000  0.00000000  1
  U  U9  4  0.00000000  0.09385661  0.75000000  1
  U  U10  4  0.00000000  0.15623665  0.25000000  1
  U  U11  4  0.00000000  0.21854188  0.75000000  1
  U  U12  4  0.00000000  0.46881039  0.75000000  1
  Pb  Pb13  8  0.16149587  0.59361850  0.75000000  1
  Pb  Pb14  8  0.16160526  0.71893153  0.75000000  1
  Pb  Pb15  8  0.16252250  0.34374703  0.75000000  1
  Pb  Pb16  8  0.16369478  0.03130885  0.25000000  1
  Pb  Pb17  4  0.00000000  0.01049005  0.75000000  1
  Pb  Pb18  4  0.00000000  0.05236899  0.75000000  1
  Pb  Pb19  4  0.00000000  0.07310070  0.25000000  1
  Pb  Pb20  4  0.00000000  0.11466726  0.25000000  1
  Pb  Pb21  4  0.00000000  0.13542768  0.75000000  1
  Pb  Pb22  4  0.00000000  0.17704609  0.75000000  1
  Pb  Pb23  4  0.00000000  0.19783277  0.25000000  1
  Pb  Pb24  4  0.00000000  0.23921104  0.25000000  1
  Pb  Pb25  4  0.00000000  0.25990202  0.75000000  1
  Pb  Pb26  4  0.00000000  0.30199694  0.75000000  1
  Pb  Pb27  4  0.00000000  0.32291636  0.25000000  1
  Pb  Pb28  4  0.00000000  0.36458666  0.25000000  1
  Pb  Pb29  4  0.00000000  0.38547456  0.75000000  1
  Pb  Pb30  4  0.00000000  0.42718690  0.75000000  1
  Pb  Pb31  4  0.00000000  0.44792076  0.25000000  1
  Pb  Pb32  4  0.00000000  0.48962867  0.25000000  1
