# generated using pymatgen
data_U(SnRu)6
_symmetry_space_group_name_H-M   Cmcm
_cell_length_a   8.94943211
_cell_length_b   19.21796130
_cell_length_c   5.55802949
_cell_angle_alpha   90.00000000
_cell_angle_beta   90.00000000
_cell_angle_gamma   90.00000000
_symmetry_Int_Tables_number   63
_chemical_formula_structural   U(SnRu)6
_chemical_formula_sum   'U4 Sn24 Ru24'
_cell_volume   955.92460187
_cell_formula_units_Z   4
loop_
 _symmetry_equiv_pos_site_id
 _symmetry_equiv_pos_as_xyz
  1  'x, y, z'
  2  '-x, -y, -z'
  3  '-x, -y, z+1/2'
  4  'x, y, -z+1/2'
  5  'x, -y, -z'
  6  '-x, y, z'
  7  '-x, y, -z+1/2'
  8  'x, -y, z+1/2'
  9  'x+1/2, y+1/2, z'
  10  '-x+1/2, -y+1/2, -z'
  11  '-x+1/2, -y+1/2, z+1/2'
  12  'x+1/2, y+1/2, -z+1/2'
  13  'x+1/2, -y+1/2, -z'
  14  '-x+1/2, y+1/2, z'
  15  '-x+1/2, y+1/2, -z+1/2'
  16  'x+1/2, -y+1/2, z+1/2'
loop_
 _atom_site_type_symbol
 _atom_site_label
 _atom_site_symmetry_multiplicity
 _atom_site_fract_x
 _atom_site_fract_y
 _atom_site_fract_z
 _atom_site_occupancy
  U  U0  4  0.00000000  0.12577432  0.75000000  1
  Sn  Sn1  8  0.16930125  0.37479262  0.25000000  1
  Sn  Sn2  4  0.00000000  0.04137615  0.25000000  1
  Sn  Sn3  4  0.00000000  0.21103618  0.25000000  1
  Sn  Sn4  4  0.00000000  0.29379996  0.75000000  1
  Sn  Sn5  4  0.00000000  0.45792734  0.75000000  1
  Ru  Ru6  8  0.24403541  0.87487631  0.75000000  1
  Ru  Ru7  8  0.24844825  0.00000000  0.00000000  1
  Ru  Ru8  8  0.25000000  0.25000000  0.00000000  1
