# generated using pymatgen
data_U(VPb)6
_symmetry_space_group_name_H-M   Cmcm
_cell_length_a   9.72266888
_cell_length_b   38.93284564
_cell_length_c   5.60791986
_cell_angle_alpha   90.00000000
_cell_angle_beta   90.00000000
_cell_angle_gamma   90.00000000
_symmetry_Int_Tables_number   63
_chemical_formula_structural   U(VPb)6
_chemical_formula_sum   'U8 V48 Pb48'
_cell_volume   2122.77244869
_cell_formula_units_Z   8
loop_
 _symmetry_equiv_pos_site_id
 _symmetry_equiv_pos_as_xyz
  1  'x, y, z'
  2  '-x, -y, -z'
  3  '-x, -y, z+1/2'
  4  'x, y, -z+1/2'
  5  'x, -y, -z'
  6  '-x, y, z'
  7  '-x, y, -z+1/2'
  8  'x, -y, z+1/2'
  9  'x+1/2, y+1/2, z'
  10  '-x+1/2, -y+1/2, -z'
  11  '-x+1/2, -y+1/2, z+1/2'
  12  'x+1/2, y+1/2, -z+1/2'
  13  'x+1/2, -y+1/2, -z'
  14  '-x+1/2, y+1/2, z'
  15  '-x+1/2, y+1/2, -z+1/2'
  16  'x+1/2, -y+1/2, z+1/2'
loop_
 _atom_site_type_symbol
 _atom_site_label
 _atom_site_symmetry_multiplicity
 _atom_site_fract_x
 _atom_site_fract_y
 _atom_site_fract_z
 _atom_site_occupancy
  U  U0  4  0.00000000  0.06414351  0.75000000  1
  U  U1  4  0.00000000  0.18999789  0.25000000  1
  V  V2  16  0.24472886  0.12435142  0.50444956  1
  V  V3  8  0.24331974  0.06256243  0.25000000  1
  V  V4  8  0.24332179  0.18805277  0.75000000  1
  V  V5  8  0.24376442  0.00000000  0.00000000  1
  V  V6  8  0.25000000  0.25000000  0.00000000  1
  Pb  Pb7  8  0.18195429  0.43822779  0.25000000  1
  Pb  Pb8  8  0.18270897  0.31332749  0.75000000  1
  Pb  Pb9  4  0.00000000  0.02098424  0.25000000  1
  Pb  Pb10  4  0.00000000  0.10522970  0.25000000  1
  Pb  Pb11  4  0.00000000  0.14704045  0.75000000  1
  Pb  Pb12  4  0.00000000  0.23058869  0.75000000  1
  Pb  Pb13  4  0.00000000  0.27267485  0.25000000  1
  Pb  Pb14  4  0.00000000  0.35495051  0.25000000  1
  Pb  Pb15  4  0.00000000  0.39652958  0.75000000  1
  Pb  Pb16  4  0.00000000  0.47913899  0.75000000  1
