# generated using pymatgen
data_U(NiGe)6
_symmetry_space_group_name_H-M   Cmcm
_cell_length_a   7.90015382
_cell_length_b   17.69685018
_cell_length_c   5.10750577
_cell_angle_alpha   90.00000000
_cell_angle_beta   90.00000000
_cell_angle_gamma   90.00000000
_symmetry_Int_Tables_number   63
_chemical_formula_structural   U(NiGe)6
_chemical_formula_sum   'U4 Ni24 Ge24'
_cell_volume   714.06934273
_cell_formula_units_Z   4
loop_
 _symmetry_equiv_pos_site_id
 _symmetry_equiv_pos_as_xyz
  1  'x, y, z'
  2  '-x, -y, -z'
  3  '-x, -y, z+1/2'
  4  'x, y, -z+1/2'
  5  'x, -y, -z'
  6  '-x, y, z'
  7  '-x, y, -z+1/2'
  8  'x, -y, z+1/2'
  9  'x+1/2, y+1/2, z'
  10  '-x+1/2, -y+1/2, -z'
  11  '-x+1/2, -y+1/2, z+1/2'
  12  'x+1/2, y+1/2, -z+1/2'
  13  'x+1/2, -y+1/2, -z'
  14  '-x+1/2, y+1/2, z'
  15  '-x+1/2, y+1/2, -z+1/2'
  16  'x+1/2, -y+1/2, z+1/2'
loop_
 _atom_site_type_symbol
 _atom_site_label
 _atom_site_symmetry_multiplicity
 _atom_site_fract_x
 _atom_site_fract_y
 _atom_site_fract_z
 _atom_site_occupancy
  U  U0  4  0.00000000  0.12667877  0.75000000  1
  Ni  Ni1  8  0.24235657  0.87477314  0.75000000  1
  Ni  Ni2  8  0.24641394  0.00000000  0.00000000  1
  Ni  Ni3  8  0.25000000  0.25000000  0.00000000  1
  Ge  Ge4  8  0.15278282  0.37527601  0.25000000  1
  Ge  Ge5  4  0.00000000  0.04154511  0.25000000  1
  Ge  Ge6  4  0.00000000  0.21332628  0.25000000  1
  Ge  Ge7  4  0.00000000  0.29517438  0.75000000  1
  Ge  Ge8  4  0.00000000  0.45797656  0.75000000  1
