# generated using pymatgen
data_U(SiAu)6
_symmetry_space_group_name_H-M   Cmmm
_cell_length_a   5.97086825
_cell_length_b   51.52158560
_cell_length_c   7.84227857
_cell_angle_alpha   90.00000000
_cell_angle_beta   90.00000000
_cell_angle_gamma   90.00000000
_symmetry_Int_Tables_number   65
_chemical_formula_structural   U(SiAu)6
_chemical_formula_sum   'U10 Si60 Au60'
_cell_volume   2412.50917461
_cell_formula_units_Z   10
loop_
 _symmetry_equiv_pos_site_id
 _symmetry_equiv_pos_as_xyz
  1  'x, y, z'
  2  '-x, -y, -z'
  3  '-x, -y, z'
  4  'x, y, -z'
  5  'x, -y, -z'
  6  '-x, y, z'
  7  '-x, y, -z'
  8  'x, -y, z'
  9  'x+1/2, y+1/2, z'
  10  '-x+1/2, -y+1/2, -z'
  11  '-x+1/2, -y+1/2, z'
  12  'x+1/2, y+1/2, -z'
  13  'x+1/2, -y+1/2, -z'
  14  '-x+1/2, y+1/2, z'
  15  '-x+1/2, y+1/2, -z'
  16  'x+1/2, -y+1/2, z'
loop_
 _atom_site_type_symbol
 _atom_site_label
 _atom_site_symmetry_multiplicity
 _atom_site_fract_x
 _atom_site_fract_y
 _atom_site_fract_z
 _atom_site_occupancy
  U  U0  4  0.00000000  0.20034968  0.50000000  1
  U  U1  4  0.00000000  0.40033411  0.00000000  1
  U  U2  2  0.00000000  0.00000000  0.00000000  1
  Si  Si3  8  0.00000000  0.19986588  0.14270013  1
  Si  Si4  8  0.00000000  0.39987983  0.35736083  1
  Si  Si5  4  0.00000000  0.00000000  0.35724620  1
  Si  Si6  4  0.00000000  0.06623515  0.50000000  1
  Si  Si7  4  0.00000000  0.06649317  0.00000000  1
  Si  Si8  4  0.00000000  0.12977063  0.00000000  1
  Si  Si9  4  0.00000000  0.13750351  0.50000000  1
  Si  Si10  4  0.00000000  0.26622856  0.00000000  1
  Si  Si11  4  0.00000000  0.26662935  0.50000000  1
  Si  Si12  4  0.00000000  0.32976199  0.50000000  1
  Si  Si13  4  0.00000000  0.33751212  0.00000000  1
  Si  Si14  4  0.00000000  0.46665224  0.50000000  1
  Si  Si15  4  0.00000000  0.46670619  0.00000000  1
  Au  Au16  16  0.24995894  0.05012337  0.25377198  1
  Au  Au17  16  0.24996340  0.34999402  0.25003491  1
  Au  Au18  8  0.00000000  0.10002562  0.25569535  1
  Au  Au19  8  0.00000000  0.29996327  0.24434984  1
  Au  Au20  8  0.25000000  0.25000000  0.24591014  1
  Au  Au21  4  0.00000000  0.50000000  0.25329579  1
