# generated using pymatgen
data_U(SnRh)6
_symmetry_space_group_name_H-M   Immm
_cell_length_a   5.62832197
_cell_length_b   8.80081919
_cell_length_c   29.20026931
_cell_angle_alpha   90.00000000
_cell_angle_beta   90.00000000
_cell_angle_gamma   90.00000000
_symmetry_Int_Tables_number   71
_chemical_formula_structural   U(SnRh)6
_chemical_formula_sum   'U6 Sn36 Rh36'
_cell_volume   1446.40158552
_cell_formula_units_Z   6
loop_
 _symmetry_equiv_pos_site_id
 _symmetry_equiv_pos_as_xyz
  1  'x, y, z'
  2  '-x, -y, -z'
  3  '-x, -y, z'
  4  'x, y, -z'
  5  'x, -y, -z'
  6  '-x, y, z'
  7  '-x, y, -z'
  8  'x, -y, z'
  9  'x+1/2, y+1/2, z+1/2'
  10  '-x+1/2, -y+1/2, -z+1/2'
  11  '-x+1/2, -y+1/2, z+1/2'
  12  'x+1/2, y+1/2, -z+1/2'
  13  'x+1/2, -y+1/2, -z+1/2'
  14  '-x+1/2, y+1/2, z+1/2'
  15  '-x+1/2, y+1/2, -z+1/2'
  16  'x+1/2, -y+1/2, z+1/2'
loop_
 _atom_site_type_symbol
 _atom_site_label
 _atom_site_symmetry_multiplicity
 _atom_site_fract_x
 _atom_site_fract_y
 _atom_site_fract_z
 _atom_site_occupancy
  U  U0  4  0.00000000  0.50000000  0.16730154  1
  U  U1  2  0.00000000  0.00000000  0.50000000  1
  Sn  Sn2  8  0.00000000  0.16298685  0.16695347  1
  Sn  Sn3  4  0.00000000  0.00000000  0.05586678  1
  Sn  Sn4  4  0.00000000  0.00000000  0.27805953  1
  Sn  Sn5  4  0.00000000  0.00000000  0.38859068  1
  Sn  Sn6  4  0.00000000  0.33642008  0.50000000  1
  Sn  Sn7  4  0.00000000  0.50000000  0.05583214  1
  Sn  Sn8  4  0.00000000  0.50000000  0.27778664  1
  Sn  Sn9  4  0.00000000  0.50000000  0.38929544  1
  Rh  Rh10  16  0.24975607  0.24758256  0.41680230  1
  Rh  Rh11  8  0.00000000  0.25175982  0.33334677  1
  Rh  Rh12  8  0.25000000  0.25000000  0.25000000  1
  Rh  Rh13  4  0.00000000  0.25188191  0.00000000  1
