# generated using pymatgen
data_U(SnHg)6
_symmetry_space_group_name_H-M   P-1
_cell_length_a   5.98302401
_cell_length_b   13.40041910
_cell_length_c   24.22283241
_cell_angle_alpha   81.77325448
_cell_angle_beta   87.92962835
_cell_angle_gamma   86.85024924
_symmetry_Int_Tables_number   2
_chemical_formula_structural   U(SnHg)6
_chemical_formula_sum   'U5 Sn30 Hg30'
_cell_volume   1918.39276783
_cell_formula_units_Z   5
loop_
 _symmetry_equiv_pos_site_id
 _symmetry_equiv_pos_as_xyz
  1  'x, y, z'
  2  '-x, -y, -z'
loop_
 _atom_site_type_symbol
 _atom_site_label
 _atom_site_symmetry_multiplicity
 _atom_site_fract_x
 _atom_site_fract_y
 _atom_site_fract_z
 _atom_site_occupancy
  U  U0  2  0.08305819  0.68661485  0.80404386  1
  U  U1  2  0.21367012  0.41152993  0.59692042  1
  U  U2  1  0.50000000  0.50000000  0.00000000  1
  Sn  Sn3  2  0.00552036  0.56184099  0.93595633  1
  Sn  Sn4  2  0.08606854  0.13961847  0.86982732  1
  Sn  Sn5  2  0.11650614  0.93175197  0.40851462  1
  Sn  Sn6  2  0.12788314  0.28171108  0.72165770  1
  Sn  Sn7  2  0.17116479  0.81655514  0.67897617  1
  Sn  Sn8  2  0.17628757  0.16255808  0.99241447  1
  Sn  Sn9  2  0.20977522  0.63482410  0.20743319  1
  Sn  Sn10  2  0.21404999  0.96135553  0.52915936  1
  Sn  Sn11  2  0.28398393  0.53219403  0.46567030  1
  Sn  Sn12  2  0.29038569  0.64643719  0.34436617  1
  Sn  Sn13  2  0.41230094  0.25531464  0.25506819  1
  Sn  Sn14  2  0.41366097  0.02963454  0.80842190  1
  Sn  Sn15  2  0.41998500  0.37220990  0.13214791  1
  Sn  Sn16  2  0.48655024  0.94048421  0.06967578  1
  Sn  Sn17  2  0.48954950  0.26535361  0.39241715  1
  Hg  Hg18  2  0.04711448  0.37414785  0.40326118  1
  Hg  Hg19  2  0.05110279  0.83473834  0.89760924  1
  Hg  Hg20  2  0.05450130  0.34227984  0.90014030  1
  Hg  Hg21  2  0.14982917  0.04974464  0.69999375  1
  Hg  Hg22  2  0.15023612  0.55031798  0.69997101  1
  Hg  Hg23  2  0.16221480  0.08761094  0.20403492  1
  Hg  Hg24  2  0.24338430  0.71782975  0.99677808  1
  Hg  Hg25  2  0.24768046  0.75848155  0.50020931  1
  Hg  Hg26  2  0.25141636  0.26628532  0.50219133  1
  Hg  Hg27  2  0.34684001  0.47396686  0.80320934  1
  Hg  Hg28  2  0.34960523  0.44991322  0.30001968  1
  Hg  Hg29  2  0.35019888  0.95018911  0.29992059  1
  Hg  Hg30  2  0.44965984  0.63481399  0.09825681  1
  Hg  Hg31  2  0.45362275  0.14494268  0.09940207  1
  Hg  Hg32  2  0.45966453  0.18643278  0.60430050  1
