# generated using pymatgen
data_U(SiAg)6
_symmetry_space_group_name_H-M   Cmcm
_cell_length_a   8.00237553
_cell_length_b   20.46871221
_cell_length_c   5.71537504
_cell_angle_alpha   90.00000000
_cell_angle_beta   90.00000000
_cell_angle_gamma   90.00000000
_symmetry_Int_Tables_number   63
_chemical_formula_structural   U(SiAg)6
_chemical_formula_sum   'U4 Si24 Ag24'
_cell_volume   936.16883995
_cell_formula_units_Z   4
loop_
 _symmetry_equiv_pos_site_id
 _symmetry_equiv_pos_as_xyz
  1  'x, y, z'
  2  '-x, -y, -z'
  3  '-x, -y, z+1/2'
  4  'x, y, -z+1/2'
  5  'x, -y, -z'
  6  '-x, y, z'
  7  '-x, y, -z+1/2'
  8  'x, -y, z+1/2'
  9  'x+1/2, y+1/2, z'
  10  '-x+1/2, -y+1/2, -z'
  11  '-x+1/2, -y+1/2, z+1/2'
  12  'x+1/2, y+1/2, -z+1/2'
  13  'x+1/2, -y+1/2, -z'
  14  '-x+1/2, y+1/2, z'
  15  '-x+1/2, y+1/2, -z+1/2'
  16  'x+1/2, -y+1/2, z+1/2'
loop_
 _atom_site_type_symbol
 _atom_site_label
 _atom_site_symmetry_multiplicity
 _atom_site_fract_x
 _atom_site_fract_y
 _atom_site_fract_z
 _atom_site_occupancy
  U  U0  4  0.00000000  0.12646075  0.75000000  1
  Si  Si1  8  0.14860249  0.38490506  0.25000000  1
  Si  Si2  4  0.00000000  0.06235749  0.25000000  1
  Si  Si3  4  0.00000000  0.18072244  0.25000000  1
  Si  Si4  4  0.00000000  0.27414141  0.75000000  1
  Si  Si5  4  0.00000000  0.48609454  0.25000000  1
  Ag  Ag6  8  0.20297239  0.37363829  0.75000000  1
  Ag  Ag7  8  0.22439257  0.00000000  0.00000000  1
  Ag  Ag8  8  0.25000000  0.25000000  0.00000000  1
