# generated using pymatgen
data_U(GeIr)6
_symmetry_space_group_name_H-M   Cmcm
_cell_length_a   8.24876718
_cell_length_b   75.21701635
_cell_length_c   5.42834303
_cell_angle_alpha   90.00000000
_cell_angle_beta   90.00000000
_cell_angle_gamma   90.00000000
_symmetry_Int_Tables_number   63
_chemical_formula_structural   U(GeIr)6
_chemical_formula_sum   'U16 Ge96 Ir96'
_cell_volume   3368.00270879
_cell_formula_units_Z   16
loop_
 _symmetry_equiv_pos_site_id
 _symmetry_equiv_pos_as_xyz
  1  'x, y, z'
  2  '-x, -y, -z'
  3  '-x, -y, z+1/2'
  4  'x, y, -z+1/2'
  5  'x, -y, -z'
  6  '-x, y, z'
  7  '-x, y, -z+1/2'
  8  'x, -y, z+1/2'
  9  'x+1/2, y+1/2, z'
  10  '-x+1/2, -y+1/2, -z'
  11  '-x+1/2, -y+1/2, z+1/2'
  12  'x+1/2, y+1/2, -z+1/2'
  13  'x+1/2, -y+1/2, -z'
  14  '-x+1/2, y+1/2, z'
  15  '-x+1/2, y+1/2, -z+1/2'
  16  'x+1/2, -y+1/2, z+1/2'
loop_
 _atom_site_type_symbol
 _atom_site_label
 _atom_site_symmetry_multiplicity
 _atom_site_fract_x
 _atom_site_fract_y
 _atom_site_fract_z
 _atom_site_occupancy
  U  U0  4  0.00000000  0.09351341  0.75000000  1
  U  U1  4  0.00000000  0.15624867  0.25000000  1
  U  U2  4  0.00000000  0.21886447  0.75000000  1
  U  U3  4  0.00000000  0.46849601  0.75000000  1
  Ge  Ge4  8  0.16185551  0.34377428  0.75000000  1
  Ge  Ge5  8  0.16188941  0.40600852  0.25000000  1
  Ge  Ge6  8  0.16203699  0.28138698  0.25000000  1
  Ge  Ge7  8  0.16355044  0.03115169  0.25000000  1
  Ge  Ge8  4  0.00000000  0.01042641  0.75000000  1
  Ge  Ge9  4  0.00000000  0.05247100  0.75000000  1
  Ge  Ge10  4  0.00000000  0.07320907  0.25000000  1
  Ge  Ge11  4  0.00000000  0.11457205  0.25000000  1
  Ge  Ge12  4  0.00000000  0.13538199  0.75000000  1
  Ge  Ge13  4  0.00000000  0.17711122  0.75000000  1
  Ge  Ge14  4  0.00000000  0.19794809  0.25000000  1
  Ge  Ge15  4  0.00000000  0.23907791  0.25000000  1
  Ge  Ge16  4  0.00000000  0.25985268  0.75000000  1
  Ge  Ge17  4  0.00000000  0.30211943  0.75000000  1
  Ge  Ge18  4  0.00000000  0.32291208  0.25000000  1
  Ge  Ge19  4  0.00000000  0.36455758  0.25000000  1
  Ge  Ge20  4  0.00000000  0.38541202  0.75000000  1
  Ge  Ge21  4  0.00000000  0.42719185  0.75000000  1
  Ge  Ge22  4  0.00000000  0.44800380  0.25000000  1
  Ge  Ge23  4  0.00000000  0.48959527  0.25000000  1
  Ir  Ir24  16  0.24742388  0.43743539  0.00017934  1
  Ir  Ir25  16  0.24779543  0.31248072  0.00004248  1
  Ir  Ir26  16  0.24779889  0.37498560  0.00005482  1
  Ir  Ir27  8  0.24519771  0.46873333  0.25000000  1
  Ir  Ir28  8  0.24703575  0.50000000  0.00000000  1
  Ir  Ir29  8  0.24726417  0.28124561  0.75000000  1
  Ir  Ir30  8  0.24784828  0.34373694  0.25000000  1
  Ir  Ir31  8  0.24963103  0.40620782  0.75000000  1
  Ir  Ir32  8  0.25000000  0.25000000  0.00000000  1
