# generated using pymatgen
data_U(SiIr)6
_symmetry_space_group_name_H-M   Cmcm
_cell_length_a   7.80194394
_cell_length_b   37.67393212
_cell_length_c   5.40064742
_cell_angle_alpha   90.00000000
_cell_angle_beta   90.00000000
_cell_angle_gamma   90.00000000
_symmetry_Int_Tables_number   63
_chemical_formula_structural   U(SiIr)6
_chemical_formula_sum   'U8 Si48 Ir48'
_cell_volume   1587.41178962
_cell_formula_units_Z   8
loop_
 _symmetry_equiv_pos_site_id
 _symmetry_equiv_pos_as_xyz
  1  'x, y, z'
  2  '-x, -y, -z'
  3  '-x, -y, z+1/2'
  4  'x, y, -z+1/2'
  5  'x, -y, -z'
  6  '-x, y, z'
  7  '-x, y, -z+1/2'
  8  'x, -y, z+1/2'
  9  'x+1/2, y+1/2, z'
  10  '-x+1/2, -y+1/2, -z'
  11  '-x+1/2, -y+1/2, z+1/2'
  12  'x+1/2, y+1/2, -z+1/2'
  13  'x+1/2, -y+1/2, -z'
  14  '-x+1/2, y+1/2, z'
  15  '-x+1/2, y+1/2, -z+1/2'
  16  'x+1/2, -y+1/2, z+1/2'
loop_
 _atom_site_type_symbol
 _atom_site_label
 _atom_site_symmetry_multiplicity
 _atom_site_fract_x
 _atom_site_fract_y
 _atom_site_fract_z
 _atom_site_occupancy
  U  U0  4  0.00000000  0.06465941  0.75000000  1
  U  U1  4  0.00000000  0.18810951  0.25000000  1
  Si  Si2  8  0.15809475  0.31338952  0.75000000  1
  Si  Si3  8  0.15829828  0.44356654  0.25000000  1
  Si  Si4  4  0.00000000  0.02266113  0.25000000  1
  Si  Si5  4  0.00000000  0.10536519  0.25000000  1
  Si  Si6  4  0.00000000  0.14616082  0.75000000  1
  Si  Si7  4  0.00000000  0.22775353  0.75000000  1
  Si  Si8  4  0.00000000  0.27059207  0.25000000  1
  Si  Si9  4  0.00000000  0.35569466  0.25000000  1
  Si  Si10  4  0.00000000  0.39615031  0.75000000  1
  Si  Si11  4  0.00000000  0.47748034  0.75000000  1
  Ir  Ir12  16  0.24582820  0.37401441  0.50201881  1
  Ir  Ir13  8  0.24608892  0.43730331  0.75000000  1
  Ir  Ir14  8  0.24693966  0.31213961  0.25000000  1
  Ir  Ir15  8  0.24991207  0.00000000  0.00000000  1
  Ir  Ir16  8  0.25000000  0.25000000  0.00000000  1
