# generated using pymatgen
data_U(ReSn)6
_symmetry_space_group_name_H-M   P-1
_cell_length_a   5.30855266
_cell_length_b   9.84687175
_cell_length_c   10.46188246
_cell_angle_alpha   65.79185584
_cell_angle_beta   89.42051688
_cell_angle_gamma   88.14440969
_symmetry_Int_Tables_number   2
_chemical_formula_structural   U(ReSn)6
_chemical_formula_sum   'U2 Re12 Sn12'
_cell_volume   498.51487278
_cell_formula_units_Z   2
loop_
 _symmetry_equiv_pos_site_id
 _symmetry_equiv_pos_as_xyz
  1  'x, y, z'
  2  '-x, -y, -z'
loop_
 _atom_site_type_symbol
 _atom_site_label
 _atom_site_symmetry_multiplicity
 _atom_site_fract_x
 _atom_site_fract_y
 _atom_site_fract_z
 _atom_site_occupancy
  U  U0  2  0.24999056  0.86820195  0.26086852  1
  Re  Re1  2  0.00684623  0.76336647  0.00104398  1
  Re  Re2  2  0.24824204  0.90954119  0.73277276  1
  Re  Re3  2  0.25282292  0.35542767  0.73996424  1
  Re  Re4  2  0.49637678  0.76121197  0.00509790  1
  Re  Re5  1  0.00000000  0.00000000  0.50000000  1
  Re  Re6  1  0.00000000  0.50000000  0.50000000  1
  Re  Re7  1  0.50000000  0.00000000  0.50000000  1
  Re  Re8  1  0.50000000  0.50000000  0.50000000  1
  Sn  Sn9  2  0.24915977  0.55179108  0.24093914  1
  Sn  Sn10  2  0.24971458  0.53598811  0.92320916  1
  Sn  Sn11  2  0.24978145  0.22094907  0.55882772  1
  Sn  Sn12  2  0.25002685  0.69488984  0.60643468  1
  Sn  Sn13  2  0.25022219  0.04313280  0.91360877  1
  Sn  Sn14  2  0.25075285  0.20780687  0.23742920  1
