# generated using pymatgen
data_U(TaPb)6
_symmetry_space_group_name_H-M   Cmcm
_cell_length_a   10.20595716
_cell_length_b   80.86872375
_cell_length_c   5.82382755
_cell_angle_alpha   90.00000000
_cell_angle_beta   90.00000000
_cell_angle_gamma   90.00000000
_symmetry_Int_Tables_number   63
_chemical_formula_structural   U(TaPb)6
_chemical_formula_sum   'U16 Ta96 Pb96'
_cell_volume   4806.65372514
_cell_formula_units_Z   16
loop_
 _symmetry_equiv_pos_site_id
 _symmetry_equiv_pos_as_xyz
  1  'x, y, z'
  2  '-x, -y, -z'
  3  '-x, -y, z+1/2'
  4  'x, y, -z+1/2'
  5  'x, -y, -z'
  6  '-x, y, z'
  7  '-x, y, -z+1/2'
  8  'x, -y, z+1/2'
  9  'x+1/2, y+1/2, z'
  10  '-x+1/2, -y+1/2, -z'
  11  '-x+1/2, -y+1/2, z+1/2'
  12  'x+1/2, y+1/2, -z+1/2'
  13  'x+1/2, -y+1/2, -z'
  14  '-x+1/2, y+1/2, z'
  15  '-x+1/2, y+1/2, -z+1/2'
  16  'x+1/2, -y+1/2, z+1/2'
loop_
 _atom_site_type_symbol
 _atom_site_label
 _atom_site_symmetry_multiplicity
 _atom_site_fract_x
 _atom_site_fract_y
 _atom_site_fract_z
 _atom_site_occupancy
  U  U0  4  0.00000000  0.03119191  0.25000000  1
  U  U1  4  0.00000000  0.28151057  0.25000000  1
  U  U2  4  0.00000000  0.34377974  0.75000000  1
  U  U3  4  0.00000000  0.40606329  0.25000000  1
  Ta  Ta4  16  0.24391306  0.37499844  0.50003487  1
  Ta  Ta5  16  0.24398489  0.31249298  0.00014082  1
  Ta  Ta6  16  0.24891327  0.06239375  0.00047552  1
  Ta  Ta7  8  0.24242627  0.00000000  0.00000000  1
  Ta  Ta8  8  0.24245454  0.03120159  0.75000000  1
  Ta  Ta9  8  0.24391665  0.40626299  0.75000000  1
  Ta  Ta10  8  0.24393972  0.34375020  0.25000000  1
  Ta  Ta11  8  0.24438427  0.28127977  0.75000000  1
  Ta  Ta12  8  0.25000000  0.25000000  0.00000000  1
  Pb  Pb13  8  0.17125024  0.21870623  0.75000000  1
  Pb  Pb14  8  0.17156146  0.15625966  0.25000000  1
  Pb  Pb15  8  0.17171392  0.09380381  0.75000000  1
  Pb  Pb16  8  0.17200073  0.46891379  0.75000000  1
  Pb  Pb17  4  0.00000000  0.01043778  0.75000000  1
  Pb  Pb18  4  0.00000000  0.05201708  0.75000000  1
  Pb  Pb19  4  0.00000000  0.07292499  0.25000000  1
  Pb  Pb20  4  0.00000000  0.11464248  0.25000000  1
  Pb  Pb21  4  0.00000000  0.13542815  0.75000000  1
  Pb  Pb22  4  0.00000000  0.17709200  0.75000000  1
  Pb  Pb23  4  0.00000000  0.19793708  0.25000000  1
  Pb  Pb24  4  0.00000000  0.23992758  0.25000000  1
  Pb  Pb25  4  0.00000000  0.26076416  0.75000000  1
  Pb  Pb26  4  0.00000000  0.30213755  0.75000000  1
  Pb  Pb27  4  0.00000000  0.32296747  0.25000000  1
  Pb  Pb28  4  0.00000000  0.36455524  0.25000000  1
  Pb  Pb29  4  0.00000000  0.38544275  0.75000000  1
  Pb  Pb30  4  0.00000000  0.42696931  0.75000000  1
  Pb  Pb31  4  0.00000000  0.44773362  0.25000000  1
  Pb  Pb32  4  0.00000000  0.48960741  0.25000000  1
