# generated using pymatgen
data_U(SiNi)6
_symmetry_space_group_name_H-M   Cmmm
_cell_length_a   4.90049957
_cell_length_b   42.68479803
_cell_length_c   7.76722262
_cell_angle_alpha   90.00000000
_cell_angle_beta   90.00000000
_cell_angle_gamma   90.00000000
_symmetry_Int_Tables_number   65
_chemical_formula_structural   U(SiNi)6
_chemical_formula_sum   'U10 Si60 Ni60'
_cell_volume   1624.72303894
_cell_formula_units_Z   10
loop_
 _symmetry_equiv_pos_site_id
 _symmetry_equiv_pos_as_xyz
  1  'x, y, z'
  2  '-x, -y, -z'
  3  '-x, -y, z'
  4  'x, y, -z'
  5  'x, -y, -z'
  6  '-x, y, z'
  7  '-x, y, -z'
  8  'x, -y, z'
  9  'x+1/2, y+1/2, z'
  10  '-x+1/2, -y+1/2, -z'
  11  '-x+1/2, -y+1/2, z'
  12  'x+1/2, y+1/2, -z'
  13  'x+1/2, -y+1/2, -z'
  14  '-x+1/2, y+1/2, z'
  15  '-x+1/2, y+1/2, -z'
  16  'x+1/2, -y+1/2, z'
loop_
 _atom_site_type_symbol
 _atom_site_label
 _atom_site_symmetry_multiplicity
 _atom_site_fract_x
 _atom_site_fract_y
 _atom_site_fract_z
 _atom_site_occupancy
  U  U0  4  0.00000000  0.19936862  0.50000000  1
  U  U1  4  0.00000000  0.39942682  0.00000000  1
  U  U2  2  0.00000000  0.00000000  0.00000000  1
  Si  Si3  8  0.00000000  0.19994891  0.15080510  1
  Si  Si4  8  0.00000000  0.39997127  0.34929061  1
  Si  Si5  4  0.00000000  0.00000000  0.35048488  1
  Si  Si6  4  0.00000000  0.06635028  0.00000000  1
  Si  Si7  4  0.00000000  0.06665053  0.50000000  1
  Si  Si8  4  0.00000000  0.13012618  0.50000000  1
  Si  Si9  4  0.00000000  0.13795893  0.00000000  1
  Si  Si10  4  0.00000000  0.26600941  0.50000000  1
  Si  Si11  4  0.00000000  0.26691535  0.00000000  1
  Si  Si12  4  0.00000000  0.33015579  0.00000000  1
  Si  Si13  4  0.00000000  0.33798975  0.50000000  1
  Si  Si14  4  0.00000000  0.46618312  0.00000000  1
  Si  Si15  4  0.00000000  0.46710404  0.50000000  1
  Ni  Ni16  16  0.24980949  0.05005478  0.25874389  1
  Ni  Ni17  16  0.24996907  0.34998585  0.24998623  1
  Ni  Ni18  8  0.00000000  0.10011767  0.25266249  1
  Ni  Ni19  8  0.00000000  0.30005956  0.24773359  1
  Ni  Ni20  8  0.25000000  0.25000000  0.24096650  1
  Ni  Ni21  4  0.00000000  0.50000000  0.25731185  1
