# generated using pymatgen
data_U(TaSn)6
_symmetry_space_group_name_H-M   Cmcm
_cell_length_a   9.76456064
_cell_length_b   40.03203861
_cell_length_c   5.80085611
_cell_angle_alpha   90.00000000
_cell_angle_beta   90.00000000
_cell_angle_gamma   90.00000000
_symmetry_Int_Tables_number   63
_chemical_formula_structural   U(TaSn)6
_chemical_formula_sum   'U8 Ta48 Sn48'
_cell_volume   2267.52720464
_cell_formula_units_Z   8
loop_
 _symmetry_equiv_pos_site_id
 _symmetry_equiv_pos_as_xyz
  1  'x, y, z'
  2  '-x, -y, -z'
  3  '-x, -y, z+1/2'
  4  'x, y, -z+1/2'
  5  'x, -y, -z'
  6  '-x, y, z'
  7  '-x, y, -z+1/2'
  8  'x, -y, z+1/2'
  9  'x+1/2, y+1/2, z'
  10  '-x+1/2, -y+1/2, -z'
  11  '-x+1/2, -y+1/2, z+1/2'
  12  'x+1/2, y+1/2, -z+1/2'
  13  'x+1/2, -y+1/2, -z'
  14  '-x+1/2, y+1/2, z'
  15  '-x+1/2, y+1/2, -z+1/2'
  16  'x+1/2, -y+1/2, z+1/2'
loop_
 _atom_site_type_symbol
 _atom_site_label
 _atom_site_symmetry_multiplicity
 _atom_site_fract_x
 _atom_site_fract_y
 _atom_site_fract_z
 _atom_site_occupancy
  U  U0  4  0.00000000  0.30980884  0.75000000  1
  U  U1  4  0.00000000  0.43536071  0.25000000  1
  Ta  Ta2  16  0.24931112  0.37501369  0.00056341  1
  Ta  Ta3  8  0.24585799  0.50000000  0.00000000  1
  Ta  Ta4  8  0.24783915  0.31241317  0.25000000  1
  Ta  Ta5  8  0.24921514  0.43743067  0.75000000  1
  Ta  Ta6  8  0.25000000  0.25000000  0.00000000  1
  Sn  Sn7  8  0.17304588  0.18710465  0.25000000  1
  Sn  Sn8  8  0.17937397  0.93905491  0.25000000  1
  Sn  Sn9  4  0.00000000  0.02136664  0.25000000  1
  Sn  Sn10  4  0.00000000  0.10191164  0.25000000  1
  Sn  Sn11  4  0.00000000  0.14502113  0.75000000  1
  Sn  Sn12  4  0.00000000  0.22667240  0.75000000  1
  Sn  Sn13  4  0.00000000  0.27119037  0.25000000  1
  Sn  Sn14  4  0.00000000  0.35365192  0.25000000  1
  Sn  Sn15  4  0.00000000  0.39543381  0.75000000  1
  Sn  Sn16  4  0.00000000  0.47792084  0.75000000  1
