# generated using pymatgen
data_U(TcPb)6
_symmetry_space_group_name_H-M   P1
_cell_length_a   5.63664187
_cell_length_b   10.60829498
_cell_length_c   19.26219135
_cell_angle_alpha   94.94963884
_cell_angle_beta   90.00456437
_cell_angle_gamma   90.60220134
_symmetry_Int_Tables_number   1
_chemical_formula_structural   U(TcPb)6
_chemical_formula_sum   'U4 Tc24 Pb24'
_cell_volume   1147.42676294
_cell_formula_units_Z   4
loop_
 _symmetry_equiv_pos_site_id
 _symmetry_equiv_pos_as_xyz
  1  'x, y, z'
loop_
 _atom_site_type_symbol
 _atom_site_label
 _atom_site_symmetry_multiplicity
 _atom_site_fract_x
 _atom_site_fract_y
 _atom_site_fract_z
 _atom_site_occupancy
  U  U0  1  0.24992059  0.99329042  0.12813581  1
  U  U1  1  0.25008760  0.48925756  0.63079934  1
  U  U2  1  0.74998332  0.51321883  0.37041275  1
  U  U3  1  0.75045594  0.00791833  0.86603955  1
  Tc  Tc4  1  0.00117327  0.75003579  0.74918998  1
  Tc  Tc5  1  0.03783498  0.23190708  0.99277784  1
  Tc  Tc6  1  0.04048608  0.77336024  0.00317594  1
  Tc  Tc7  1  0.04264334  0.27358291  0.50118220  1
  Tc  Tc8  1  0.24725474  0.22927125  0.86027153  1
  Tc  Tc9  1  0.24879331  0.73302017  0.35343608  1
  Tc  Tc10  1  0.25127743  0.77137918  0.85279153  1
  Tc  Tc11  1  0.25129800  0.27481659  0.35464646  1
  Tc  Tc12  1  0.45663501  0.27353841  0.50046073  1
  Tc  Tc13  1  0.45873317  0.77342003  0.00243473  1
  Tc  Tc14  1  0.46302960  0.23270679  0.99365585  1
  Tc  Tc15  1  0.49880413  0.74979737  0.74913409  1
  Tc  Tc16  1  0.50023814  0.24852994  0.25061962  1
  Tc  Tc17  1  0.50027731  0.75022343  0.25000184  1
  Tc  Tc18  1  0.51052103  0.24970631  0.75011363  1
  Tc  Tc19  1  0.54332372  0.72602840  0.49966076  1
  Tc  Tc20  1  0.74873095  0.22516210  0.14615920  1
  Tc  Tc21  1  0.74876737  0.72396308  0.64542151  1
  Tc  Tc22  1  0.75129659  0.76736853  0.14629277  1
  Tc  Tc23  1  0.75134222  0.26818165  0.64624791  1
  Tc  Tc24  1  0.95738542  0.72590346  0.49891029  1
  Tc  Tc25  1  0.99052721  0.24941786  0.75052041  1
  Tc  Tc26  1  0.99968894  0.75029231  0.24997286  1
  Tc  Tc27  1  0.99976565  0.24853005  0.25063822  1
  Pb  Pb28  1  0.24949327  0.31603208  0.12107430  1
  Pb  Pb29  1  0.24966426  0.51090290  0.45450134  1
  Pb  Pb30  1  0.24968188  0.80928714  0.61549881  1
  Pb  Pb31  1  0.24990126  0.01366042  0.46425403  1
  Pb  Pb32  1  0.24998265  0.50100708  0.96500954  1
  Pb  Pb33  1  0.25012072  0.99789146  0.30294020  1
  Pb  Pb34  1  0.25012305  0.99560701  0.95114034  1
  Pb  Pb35  1  0.25012839  0.49181621  0.80334746  1
  Pb  Pb36  1  0.25013880  0.49702897  0.27587806  1
  Pb  Pb37  1  0.25026512  0.17496008  0.62149617  1
  Pb  Pb38  1  0.25043470  0.67514744  0.12068951  1
  Pb  Pb39  1  0.25046680  0.00074768  0.77436690  1
  Pb  Pb40  1  0.74930977  0.31928858  0.88319336  1
  Pb  Pb41  1  0.74956606  0.49389772  0.03672952  1
  Pb  Pb42  1  0.74970524  0.82660973  0.37965958  1
  Pb  Pb43  1  0.74970827  0.00281708  0.22418486  1
  Pb  Pb44  1  0.74988117  0.50380233  0.19715697  1
  Pb  Pb45  1  0.74991127  0.00110392  0.69589580  1
  Pb  Pb46  1  0.74995609  0.50337067  0.72633374  1
  Pb  Pb47  1  0.75006422  0.98759733  0.53540974  1
  Pb  Pb48  1  0.75017425  0.69146086  0.88487463  1
  Pb  Pb49  1  0.75022770  0.19111745  0.38440752  1
  Pb  Pb50  1  0.75033562  0.48879805  0.54601610  1
  Pb  Pb51  1  0.75048440  0.00221974  0.04283809  1
