# generated using pymatgen
data_U(NiSn)6
_symmetry_space_group_name_H-M   Cmcm
_cell_length_a   8.76827006
_cell_length_b   37.24657411
_cell_length_c   5.38447122
_cell_angle_alpha   90.00000000
_cell_angle_beta   90.00000000
_cell_angle_gamma   90.00000000
_symmetry_Int_Tables_number   63
_chemical_formula_structural   U(NiSn)6
_chemical_formula_sum   'U8 Ni48 Sn48'
_cell_volume   1758.50379783
_cell_formula_units_Z   8
loop_
 _symmetry_equiv_pos_site_id
 _symmetry_equiv_pos_as_xyz
  1  'x, y, z'
  2  '-x, -y, -z'
  3  '-x, -y, z+1/2'
  4  'x, y, -z+1/2'
  5  'x, -y, -z'
  6  '-x, y, z'
  7  '-x, y, -z+1/2'
  8  'x, -y, z+1/2'
  9  'x+1/2, y+1/2, z'
  10  '-x+1/2, -y+1/2, -z'
  11  '-x+1/2, -y+1/2, z+1/2'
  12  'x+1/2, y+1/2, -z+1/2'
  13  'x+1/2, -y+1/2, -z'
  14  '-x+1/2, y+1/2, z'
  15  '-x+1/2, y+1/2, -z+1/2'
  16  'x+1/2, -y+1/2, z+1/2'
loop_
 _atom_site_type_symbol
 _atom_site_label
 _atom_site_symmetry_multiplicity
 _atom_site_fract_x
 _atom_site_fract_y
 _atom_site_fract_z
 _atom_site_occupancy
  U  U0  4  0.00000000  0.06477399  0.75000000  1
  U  U1  4  0.00000000  0.19101403  0.25000000  1
  Ni  Ni2  16  0.24927258  0.37535594  0.00366199  1
  Ni  Ni3  8  0.24706320  0.18803741  0.75000000  1
  Ni  Ni4  8  0.24829034  0.00000000  0.00000000  1
  Ni  Ni5  8  0.24875796  0.06265442  0.25000000  1
  Ni  Ni6  8  0.25000000  0.25000000  0.00000000  1
  Sn  Sn7  8  0.16932875  0.43965549  0.25000000  1
  Sn  Sn8  8  0.16984755  0.31373375  0.75000000  1
  Sn  Sn9  4  0.00000000  0.02106155  0.25000000  1
  Sn  Sn10  4  0.00000000  0.10568797  0.25000000  1
  Sn  Sn11  4  0.00000000  0.14749529  0.75000000  1
  Sn  Sn12  4  0.00000000  0.23205110  0.75000000  1
  Sn  Sn13  4  0.00000000  0.27454042  0.25000000  1
  Sn  Sn14  4  0.00000000  0.35586890  0.25000000  1
  Sn  Sn15  4  0.00000000  0.39651922  0.75000000  1
  Sn  Sn16  4  0.00000000  0.47832326  0.75000000  1
