# generated using pymatgen
data_U(CdSi)6
_symmetry_space_group_name_H-M   Immm
_cell_length_a   5.97709621
_cell_length_b   8.49424554
_cell_length_c   30.29730361
_cell_angle_alpha   90.00000000
_cell_angle_beta   90.00000000
_cell_angle_gamma   90.00000000
_symmetry_Int_Tables_number   71
_chemical_formula_structural   U(CdSi)6
_chemical_formula_sum   'U6 Cd36 Si36'
_cell_volume   1538.22206390
_cell_formula_units_Z   6
loop_
 _symmetry_equiv_pos_site_id
 _symmetry_equiv_pos_as_xyz
  1  'x, y, z'
  2  '-x, -y, -z'
  3  '-x, -y, z'
  4  'x, y, -z'
  5  'x, -y, -z'
  6  '-x, y, z'
  7  '-x, y, -z'
  8  'x, -y, z'
  9  'x+1/2, y+1/2, z+1/2'
  10  '-x+1/2, -y+1/2, -z+1/2'
  11  '-x+1/2, -y+1/2, z+1/2'
  12  'x+1/2, y+1/2, -z+1/2'
  13  'x+1/2, -y+1/2, -z+1/2'
  14  '-x+1/2, y+1/2, z+1/2'
  15  '-x+1/2, y+1/2, -z+1/2'
  16  'x+1/2, -y+1/2, z+1/2'
loop_
 _atom_site_type_symbol
 _atom_site_label
 _atom_site_symmetry_multiplicity
 _atom_site_fract_x
 _atom_site_fract_y
 _atom_site_fract_z
 _atom_site_occupancy
  U  U0  4  0.00000000  0.00000000  0.16276095  1
  U  U1  2  0.00000000  0.50000000  0.50000000  1
  Cd  Cd2  16  0.24777045  0.24369189  0.08488664  1
  Cd  Cd3  8  0.00000000  0.21776771  0.33264248  1
  Cd  Cd4  8  0.25000000  0.25000000  0.25000000  1
  Cd  Cd5  4  0.00000000  0.25097597  0.00000000  1
  Si  Si6  8  0.00000000  0.36470910  0.16446594  1
  Si  Si7  4  0.00000000  0.00000000  0.05353310  1
  Si  Si8  4  0.00000000  0.00000000  0.25639241  1
  Si  Si9  4  0.00000000  0.00000000  0.40192070  1
  Si  Si10  4  0.00000000  0.13568022  0.50000000  1
  Si  Si11  4  0.00000000  0.50000000  0.05520440  1
  Si  Si12  4  0.00000000  0.50000000  0.29139311  1
  Si  Si13  4  0.00000000  0.50000000  0.38175570  1
