# generated using pymatgen
data_U(CdSn)6
_symmetry_space_group_name_H-M   Cmcm
_cell_length_a   10.17098413
_cell_length_b   41.40949069
_cell_length_c   5.89384414
_cell_angle_alpha   90.00000000
_cell_angle_beta   90.00000000
_cell_angle_gamma   90.00000000
_symmetry_Int_Tables_number   63
_chemical_formula_structural   U(CdSn)6
_chemical_formula_sum   'U8 Cd48 Sn48'
_cell_volume   2482.34141290
_cell_formula_units_Z   8
loop_
 _symmetry_equiv_pos_site_id
 _symmetry_equiv_pos_as_xyz
  1  'x, y, z'
  2  '-x, -y, -z'
  3  '-x, -y, z+1/2'
  4  'x, y, -z+1/2'
  5  'x, -y, -z'
  6  '-x, y, z'
  7  '-x, y, -z+1/2'
  8  'x, -y, z+1/2'
  9  'x+1/2, y+1/2, z'
  10  '-x+1/2, -y+1/2, -z'
  11  '-x+1/2, -y+1/2, z+1/2'
  12  'x+1/2, y+1/2, -z+1/2'
  13  'x+1/2, -y+1/2, -z'
  14  '-x+1/2, y+1/2, z'
  15  '-x+1/2, y+1/2, -z+1/2'
  16  'x+1/2, -y+1/2, z+1/2'
loop_
 _atom_site_type_symbol
 _atom_site_label
 _atom_site_symmetry_multiplicity
 _atom_site_fract_x
 _atom_site_fract_y
 _atom_site_fract_z
 _atom_site_occupancy
  U  U0  4  0.00000000  0.06499710  0.25000000  1
  U  U1  4  0.00000000  0.18923945  0.75000000  1
  Cd  Cd2  16  0.24739291  0.87589685  0.50378494  1
  Cd  Cd3  8  0.24057225  0.06269584  0.75000000  1
  Cd  Cd4  8  0.24319965  0.00000000  0.00000000  1
  Cd  Cd5  8  0.24447181  0.81258890  0.75000000  1
  Cd  Cd6  8  0.25000000  0.25000000  0.00000000  1
  Sn  Sn7  8  0.18738930  0.31327081  0.25000000  1
  Sn  Sn8  8  0.18774464  0.43851627  0.75000000  1
  Sn  Sn9  4  0.00000000  0.02214177  0.75000000  1
  Sn  Sn10  4  0.00000000  0.10646986  0.75000000  1
  Sn  Sn11  4  0.00000000  0.14697082  0.25000000  1
  Sn  Sn12  4  0.00000000  0.22660100  0.25000000  1
  Sn  Sn13  4  0.00000000  0.26867145  0.75000000  1
  Sn  Sn14  4  0.00000000  0.35426765  0.75000000  1
  Sn  Sn15  4  0.00000000  0.39723160  0.25000000  1
  Sn  Sn16  4  0.00000000  0.47815789  0.25000000  1
