# generated using pymatgen
data_U(TcGe)6
_symmetry_space_group_name_H-M   Cmcm
_cell_length_a   8.39158672
_cell_length_b   74.17512300
_cell_length_c   5.35763176
_cell_angle_alpha   90.00000000
_cell_angle_beta   90.00000000
_cell_angle_gamma   90.00000000
_symmetry_Int_Tables_number   63
_chemical_formula_structural   U(TcGe)6
_chemical_formula_sum   'U16 Tc96 Ge96'
_cell_volume   3334.84169081
_cell_formula_units_Z   16
loop_
 _symmetry_equiv_pos_site_id
 _symmetry_equiv_pos_as_xyz
  1  'x, y, z'
  2  '-x, -y, -z'
  3  '-x, -y, z+1/2'
  4  'x, y, -z+1/2'
  5  'x, -y, -z'
  6  '-x, y, z'
  7  '-x, y, -z+1/2'
  8  'x, -y, z+1/2'
  9  'x+1/2, y+1/2, z'
  10  '-x+1/2, -y+1/2, -z'
  11  '-x+1/2, -y+1/2, z+1/2'
  12  'x+1/2, y+1/2, -z+1/2'
  13  'x+1/2, -y+1/2, -z'
  14  '-x+1/2, y+1/2, z'
  15  '-x+1/2, y+1/2, -z+1/2'
  16  'x+1/2, -y+1/2, z+1/2'
loop_
 _atom_site_type_symbol
 _atom_site_label
 _atom_site_symmetry_multiplicity
 _atom_site_fract_x
 _atom_site_fract_y
 _atom_site_fract_z
 _atom_site_occupancy
  U  U0  4  0.00000000  0.09344616  0.25000000  1
  U  U1  4  0.00000000  0.15624691  0.75000000  1
  U  U2  4  0.00000000  0.21891857  0.25000000  1
  U  U3  4  0.00000000  0.46834237  0.25000000  1
  Tc  Tc4  16  0.24649367  0.43756441  0.00149527  1
  Tc  Tc5  16  0.24940188  0.12500755  0.00008877  1
  Tc  Tc6  16  0.24970095  0.18753101  0.00012821  1
  Tc  Tc7  8  0.24239501  0.46869151  0.75000000  1
  Tc  Tc8  8  0.24359681  0.50000000  0.00000000  1
  Tc  Tc9  8  0.24860011  0.90619184  0.25000000  1
  Tc  Tc10  8  0.24944022  0.15626276  0.25000000  1
  Tc  Tc11  8  0.24991380  0.28126804  0.25000000  1
  Tc  Tc12  8  0.25000000  0.25000000  0.00000000  1
  Ge  Ge13  8  0.15844721  0.40615496  0.75000000  1
  Ge  Ge14  8  0.15858268  0.65625118  0.75000000  1
  Ge  Ge15  8  0.15867297  0.28120867  0.75000000  1
  Ge  Ge16  8  0.16053913  0.96879436  0.25000000  1
  Ge  Ge17  4  0.00000000  0.01040979  0.25000000  1
  Ge  Ge18  4  0.00000000  0.05201370  0.25000000  1
  Ge  Ge19  4  0.00000000  0.07268950  0.75000000  1
  Ge  Ge20  4  0.00000000  0.11456837  0.75000000  1
  Ge  Ge21  4  0.00000000  0.13538270  0.25000000  1
  Ge  Ge22  4  0.00000000  0.17712453  0.25000000  1
  Ge  Ge23  4  0.00000000  0.19793540  0.75000000  1
  Ge  Ge24  4  0.00000000  0.23929826  0.75000000  1
  Ge  Ge25  4  0.00000000  0.25998519  0.25000000  1
  Ge  Ge26  4  0.00000000  0.30207530  0.25000000  1
  Ge  Ge27  4  0.00000000  0.32290424  0.75000000  1
  Ge  Ge28  4  0.00000000  0.36458617  0.75000000  1
  Ge  Ge29  4  0.00000000  0.38540531  0.25000000  1
  Ge  Ge30  4  0.00000000  0.42685377  0.25000000  1
  Ge  Ge31  4  0.00000000  0.44761651  0.75000000  1
  Ge  Ge32  4  0.00000000  0.48962153  0.75000000  1
