# generated using pymatgen
data_U(NbSi)6
_symmetry_space_group_name_H-M   Cmcm
_cell_length_a   8.63809379
_cell_length_b   38.56592264
_cell_length_c   5.55211357
_cell_angle_alpha   90.00000000
_cell_angle_beta   90.00000000
_cell_angle_gamma   90.00000000
_symmetry_Int_Tables_number   63
_chemical_formula_structural   U(NbSi)6
_chemical_formula_sum   'U8 Nb48 Si48'
_cell_volume   1849.60922116
_cell_formula_units_Z   8
loop_
 _symmetry_equiv_pos_site_id
 _symmetry_equiv_pos_as_xyz
  1  'x, y, z'
  2  '-x, -y, -z'
  3  '-x, -y, z+1/2'
  4  'x, y, -z+1/2'
  5  'x, -y, -z'
  6  '-x, y, z'
  7  '-x, y, -z+1/2'
  8  'x, -y, z+1/2'
  9  'x+1/2, y+1/2, z'
  10  '-x+1/2, -y+1/2, -z'
  11  '-x+1/2, -y+1/2, z+1/2'
  12  'x+1/2, y+1/2, -z+1/2'
  13  'x+1/2, -y+1/2, -z'
  14  '-x+1/2, y+1/2, z'
  15  '-x+1/2, y+1/2, -z+1/2'
  16  'x+1/2, -y+1/2, z+1/2'
loop_
 _atom_site_type_symbol
 _atom_site_label
 _atom_site_symmetry_multiplicity
 _atom_site_fract_x
 _atom_site_fract_y
 _atom_site_fract_z
 _atom_site_occupancy
  U  U0  4  0.00000000  0.31183756  0.75000000  1
  U  U1  4  0.00000000  0.43624061  0.25000000  1
  Nb  Nb2  16  0.24794458  0.12486291  0.50042280  1
  Nb  Nb3  8  0.24745598  0.50000000  0.00000000  1
  Nb  Nb4  8  0.24770312  0.43748688  0.75000000  1
  Nb  Nb5  8  0.24951421  0.81256201  0.25000000  1
  Nb  Nb6  8  0.25000000  0.25000000  0.00000000  1
  Si  Si7  8  0.16323048  0.18706910  0.25000000  1
  Si  Si8  8  0.16345639  0.06213653  0.75000000  1
  Si  Si9  4  0.00000000  0.02124713  0.25000000  1
  Si  Si10  4  0.00000000  0.10243152  0.25000000  1
  Si  Si11  4  0.00000000  0.14702561  0.75000000  1
  Si  Si12  4  0.00000000  0.23033454  0.75000000  1
  Si  Si13  4  0.00000000  0.27372223  0.25000000  1
  Si  Si14  4  0.00000000  0.35380932  0.25000000  1
  Si  Si15  4  0.00000000  0.39520518  0.75000000  1
  Si  Si16  4  0.00000000  0.47819151  0.75000000  1
