# generated using pymatgen
data_U(CdSn)6
_symmetry_space_group_name_H-M   Immm
_cell_length_a   5.89733139
_cell_length_b   10.20413831
_cell_length_c   31.20291729
_cell_angle_alpha   90.00000000
_cell_angle_beta   90.00000000
_cell_angle_gamma   90.00000000
_symmetry_Int_Tables_number   71
_chemical_formula_structural   U(CdSn)6
_chemical_formula_sum   'U6 Cd36 Sn36'
_cell_volume   1877.70373270
_cell_formula_units_Z   6
loop_
 _symmetry_equiv_pos_site_id
 _symmetry_equiv_pos_as_xyz
  1  'x, y, z'
  2  '-x, -y, -z'
  3  '-x, -y, z'
  4  'x, y, -z'
  5  'x, -y, -z'
  6  '-x, y, z'
  7  '-x, y, -z'
  8  'x, -y, z'
  9  'x+1/2, y+1/2, z+1/2'
  10  '-x+1/2, -y+1/2, -z+1/2'
  11  '-x+1/2, -y+1/2, z+1/2'
  12  'x+1/2, y+1/2, -z+1/2'
  13  'x+1/2, -y+1/2, -z+1/2'
  14  '-x+1/2, y+1/2, z+1/2'
  15  '-x+1/2, y+1/2, -z+1/2'
  16  'x+1/2, -y+1/2, z+1/2'
loop_
 _atom_site_type_symbol
 _atom_site_label
 _atom_site_symmetry_multiplicity
 _atom_site_fract_x
 _atom_site_fract_y
 _atom_site_fract_z
 _atom_site_occupancy
  U  U0  4  0.00000000  0.00000000  0.33942272  1
  U  U1  2  0.00000000  0.50000000  0.00000000  1
  Cd  Cd2  16  0.24890161  0.24413660  0.41646643  1
  Cd  Cd3  8  0.00000000  0.24912669  0.16620823  1
  Cd  Cd4  8  0.25000000  0.25000000  0.25000000  1
  Cd  Cd5  4  0.00000000  0.24637833  0.50000000  1
  Sn  Sn6  8  0.00000000  0.31136686  0.33392349  1
  Sn  Sn7  4  0.00000000  0.00000000  0.10716063  1
  Sn  Sn8  4  0.00000000  0.00000000  0.23317783  1
  Sn  Sn9  4  0.00000000  0.00000000  0.44642959  1
  Sn  Sn10  4  0.00000000  0.18951115  0.00000000  1
  Sn  Sn11  4  0.00000000  0.50000000  0.10961854  1
  Sn  Sn12  4  0.00000000  0.50000000  0.21420993  1
  Sn  Sn13  4  0.00000000  0.50000000  0.44337973  1
