# generated using pymatgen
data_U(FeSi)6
_symmetry_space_group_name_H-M   Cmcm
_cell_length_a   7.92550378
_cell_length_b   33.24697048
_cell_length_c   4.78443237
_cell_angle_alpha   90.00000000
_cell_angle_beta   90.00000000
_cell_angle_gamma   90.00000000
_symmetry_Int_Tables_number   63
_chemical_formula_structural   U(FeSi)6
_chemical_formula_sum   'U8 Fe48 Si48'
_cell_volume   1260.69309732
_cell_formula_units_Z   8
loop_
 _symmetry_equiv_pos_site_id
 _symmetry_equiv_pos_as_xyz
  1  'x, y, z'
  2  '-x, -y, -z'
  3  '-x, -y, z+1/2'
  4  'x, y, -z+1/2'
  5  'x, -y, -z'
  6  '-x, y, z'
  7  '-x, y, -z+1/2'
  8  'x, -y, z+1/2'
  9  'x+1/2, y+1/2, z'
  10  '-x+1/2, -y+1/2, -z'
  11  '-x+1/2, -y+1/2, z+1/2'
  12  'x+1/2, y+1/2, -z+1/2'
  13  'x+1/2, -y+1/2, -z'
  14  '-x+1/2, y+1/2, z'
  15  '-x+1/2, y+1/2, -z+1/2'
  16  'x+1/2, -y+1/2, z+1/2'
loop_
 _atom_site_type_symbol
 _atom_site_label
 _atom_site_symmetry_multiplicity
 _atom_site_fract_x
 _atom_site_fract_y
 _atom_site_fract_z
 _atom_site_occupancy
  U  U0  4  0.00000000  0.06371745  0.75000000  1
  U  U1  4  0.00000000  0.19281780  0.25000000  1
  Fe  Fe2  16  0.24679007  0.37519788  0.00163811  1
  Fe  Fe3  8  0.24463676  0.81227851  0.25000000  1
  Fe  Fe4  8  0.24813208  0.50000000  0.00000000  1
  Fe  Fe5  8  0.24960074  0.06263387  0.25000000  1
  Fe  Fe6  8  0.25000000  0.25000000  0.00000000  1
  Si  Si7  8  0.14666830  0.43793301  0.25000000  1
  Si  Si8  8  0.14716852  0.31330214  0.75000000  1
  Si  Si9  4  0.00000000  0.02052763  0.25000000  1
  Si  Si10  4  0.00000000  0.10753486  0.25000000  1
  Si  Si11  4  0.00000000  0.14780322  0.75000000  1
  Si  Si12  4  0.00000000  0.23833229  0.75000000  1
  Si  Si13  4  0.00000000  0.27874698  0.25000000  1
  Si  Si14  4  0.00000000  0.35559550  0.25000000  1
  Si  Si15  4  0.00000000  0.39692518  0.75000000  1
  Si  Si16  4  0.00000000  0.47905468  0.75000000  1
