# generated using pymatgen
data_U(SiTc)6
_symmetry_space_group_name_H-M   Cmcm
_cell_length_a   7.90522115
_cell_length_b   37.11746937
_cell_length_c   5.31630466
_cell_angle_alpha   90.00000000
_cell_angle_beta   90.00000000
_cell_angle_gamma   90.00000000
_symmetry_Int_Tables_number   63
_chemical_formula_structural   U(SiTc)6
_chemical_formula_sum   'U8 Si48 Tc48'
_cell_volume   1559.91970417
_cell_formula_units_Z   8
loop_
 _symmetry_equiv_pos_site_id
 _symmetry_equiv_pos_as_xyz
  1  'x, y, z'
  2  '-x, -y, -z'
  3  '-x, -y, z+1/2'
  4  'x, y, -z+1/2'
  5  'x, -y, -z'
  6  '-x, y, z'
  7  '-x, y, -z+1/2'
  8  'x, -y, z+1/2'
  9  'x+1/2, y+1/2, z'
  10  '-x+1/2, -y+1/2, -z'
  11  '-x+1/2, -y+1/2, z+1/2'
  12  'x+1/2, y+1/2, -z+1/2'
  13  'x+1/2, -y+1/2, -z'
  14  '-x+1/2, y+1/2, z'
  15  '-x+1/2, y+1/2, -z+1/2'
  16  'x+1/2, -y+1/2, z+1/2'
loop_
 _atom_site_type_symbol
 _atom_site_label
 _atom_site_symmetry_multiplicity
 _atom_site_fract_x
 _atom_site_fract_y
 _atom_site_fract_z
 _atom_site_occupancy
  U  U0  4  0.00000000  0.31168765  0.25000000  1
  U  U1  4  0.00000000  0.43631005  0.75000000  1
  Tc  Tc2  16  0.24400778  0.12557477  0.50088983  1
  Si  Si3  8  0.15574387  0.05803190  0.25000000  1
  Si  Si4  8  0.15709706  0.18620542  0.75000000  1
  Tc  Tc5  8  0.24468138  0.06268785  0.75000000  1
  Tc  Tc6  8  0.24764750  0.00000000  0.00000000  1
  Tc  Tc7  8  0.24814070  0.18758094  0.25000000  1
  Tc  Tc8  8  0.25000000  0.25000000  0.00000000  1
  Si  Si9  4  0.00000000  0.02166858  0.75000000  1
  Si  Si10  4  0.00000000  0.10376246  0.75000000  1
  Si  Si11  4  0.00000000  0.14649574  0.25000000  1
  Si  Si12  4  0.00000000  0.22838183  0.25000000  1
  Si  Si13  4  0.00000000  0.27169135  0.75000000  1
  Si  Si14  4  0.00000000  0.35373701  0.75000000  1
  Si  Si15  4  0.00000000  0.39477139  0.25000000  1
  Si  Si16  4  0.00000000  0.47778219  0.25000000  1
