# generated using pymatgen
data_U(PbAu)6
_symmetry_space_group_name_H-M   Cmcm
_cell_length_a   10.43477428
_cell_length_b   40.93664116
_cell_length_c   5.89191812
_cell_angle_alpha   90.00000000
_cell_angle_beta   90.00000000
_cell_angle_gamma   90.00000000
_symmetry_Int_Tables_number   63
_chemical_formula_structural   U(PbAu)6
_chemical_formula_sum   'U8 Pb48 Au48'
_cell_volume   2516.81890520
_cell_formula_units_Z   8
loop_
 _symmetry_equiv_pos_site_id
 _symmetry_equiv_pos_as_xyz
  1  'x, y, z'
  2  '-x, -y, -z'
  3  '-x, -y, z+1/2'
  4  'x, y, -z+1/2'
  5  'x, -y, -z'
  6  '-x, y, z'
  7  '-x, y, -z+1/2'
  8  'x, -y, z+1/2'
  9  'x+1/2, y+1/2, z'
  10  '-x+1/2, -y+1/2, -z'
  11  '-x+1/2, -y+1/2, z+1/2'
  12  'x+1/2, y+1/2, -z+1/2'
  13  'x+1/2, -y+1/2, -z'
  14  '-x+1/2, y+1/2, z'
  15  '-x+1/2, y+1/2, -z+1/2'
  16  'x+1/2, -y+1/2, z+1/2'
loop_
 _atom_site_type_symbol
 _atom_site_label
 _atom_site_symmetry_multiplicity
 _atom_site_fract_x
 _atom_site_fract_y
 _atom_site_fract_z
 _atom_site_occupancy
  U  U0  4  0.00000000  0.31067373  0.25000000  1
  U  U1  4  0.00000000  0.43617064  0.75000000  1
  Pb  Pb2  8  0.17638145  0.18650251  0.75000000  1
  Pb  Pb3  8  0.17804871  0.06043970  0.25000000  1
  Pb  Pb4  4  0.00000000  0.02159532  0.75000000  1
  Pb  Pb5  4  0.00000000  0.10285636  0.75000000  1
  Pb  Pb6  4  0.00000000  0.14409168  0.25000000  1
  Pb  Pb7  4  0.00000000  0.22729772  0.25000000  1
  Pb  Pb8  4  0.00000000  0.27027812  0.75000000  1
  Pb  Pb9  4  0.00000000  0.35283847  0.75000000  1
  Pb  Pb10  4  0.00000000  0.39440409  0.25000000  1
  Pb  Pb11  4  0.00000000  0.47855596  0.25000000  1
  Au  Au12  16  0.24120057  0.37508843  0.50373650  1
  Au  Au13  8  0.23645873  0.31166976  0.75000000  1
  Au  Au14  8  0.23740767  0.50000000  0.00000000  1
  Au  Au15  8  0.23983907  0.43702603  0.25000000  1
  Au  Au16  8  0.25000000  0.25000000  0.00000000  1
