# generated using pymatgen
data_U(GePt)6
_symmetry_space_group_name_H-M   C2/c
_cell_length_a   8.66540147
_cell_length_b   37.75645106
_cell_length_c   5.50951944
_cell_angle_alpha   90.00000000
_cell_angle_beta   96.89405255
_cell_angle_gamma   90.00000000
_symmetry_Int_Tables_number   15
_chemical_formula_structural   U(GePt)6
_chemical_formula_sum   'U8 Ge48 Pt48'
_cell_volume   1789.54298503
_cell_formula_units_Z   8
loop_
 _symmetry_equiv_pos_site_id
 _symmetry_equiv_pos_as_xyz
  1  'x, y, z'
  2  '-x, -y, -z'
  3  '-x, y, -z+1/2'
  4  'x, -y, z+1/2'
  5  'x+1/2, y+1/2, z'
  6  '-x+1/2, -y+1/2, -z'
  7  '-x+1/2, y+1/2, -z+1/2'
  8  'x+1/2, -y+1/2, z+1/2'
loop_
 _atom_site_type_symbol
 _atom_site_label
 _atom_site_symmetry_multiplicity
 _atom_site_fract_x
 _atom_site_fract_y
 _atom_site_fract_z
 _atom_site_occupancy
  U  U0  4  0.00000000  0.06397403  0.25000000  1
  U  U1  4  0.00000000  0.18993497  0.75000000  1
  Ge  Ge2  8  0.15007248  0.31315038  0.25157229  1
  Ge  Ge3  8  0.15534062  0.44092190  0.75114462  1
  Ge  Ge4  4  0.00000000  0.02245700  0.75000000  1
  Ge  Ge5  4  0.00000000  0.10556648  0.75000000  1
  Ge  Ge6  4  0.00000000  0.14656271  0.25000000  1
  Ge  Ge7  4  0.00000000  0.22968516  0.25000000  1
  Ge  Ge8  4  0.00000000  0.27428567  0.75000000  1
  Ge  Ge9  4  0.00000000  0.35582786  0.75000000  1
  Ge  Ge10  4  0.00000000  0.39749743  0.25000000  1
  Ge  Ge11  4  0.00000000  0.47749542  0.25000000  1
  Pt  Pt12  8  0.24435190  0.37455573  0.49812756  1
  Pt  Pt13  8  0.24519168  0.43712426  0.24776328  1
  Pt  Pt14  8  0.24553556  0.37430556  0.99932436  1
  Pt  Pt15  8  0.24905905  0.18774395  0.25137337  1
  Pt  Pt16  8  0.24947272  0.49965991  0.49852298  1
  Pt  Pt17  4  0.25000000  0.25000000  0.00000000  1
  Pt  Pt18  4  0.25000000  0.25000000  0.50000000  1
