# generated using pymatgen
data_U(RePb)6
_symmetry_space_group_name_H-M   P-1
_cell_length_a   5.41933670
_cell_length_b   11.57057764
_cell_length_c   37.69445241
_cell_angle_alpha   95.17329688
_cell_angle_beta   92.07189549
_cell_angle_gamma   102.92791041
_symmetry_Int_Tables_number   2
_chemical_formula_structural   U(RePb)6
_chemical_formula_sum   'U8 Re48 Pb48'
_cell_volume   2290.46270377
_cell_formula_units_Z   8
loop_
 _symmetry_equiv_pos_site_id
 _symmetry_equiv_pos_as_xyz
  1  'x, y, z'
  2  '-x, -y, -z'
loop_
 _atom_site_type_symbol
 _atom_site_label
 _atom_site_symmetry_multiplicity
 _atom_site_fract_x
 _atom_site_fract_y
 _atom_site_fract_z
 _atom_site_occupancy
  U  U0  2  0.03057112  0.28059609  0.56172736  1
  U  U1  2  0.15702684  0.40694463  0.81287305  1
  U  U2  2  0.21830384  0.96823930  0.93676404  1
  U  U3  2  0.40625213  0.65624065  0.31246660  1
  Re  Re4  2  0.03746146  0.80962385  0.06315017  1
  Re  Re5  2  0.05141755  0.55306291  0.62303310  1
  Re  Re6  2  0.06915007  0.07032187  0.62250296  1
  Re  Re7  2  0.08187628  0.35427589  0.18777992  1
  Re  Re8  2  0.11588043  0.61643278  0.75259260  1
  Re  Re9  2  0.13871732  0.13526126  0.75205173  1
  Re  Re10  2  0.16935208  0.89565885  0.31246320  1
  Re  Re11  2  0.18737214  0.17841916  0.87671275  1
  Re  Re12  2  0.18910182  0.69744802  0.87677133  1
  Re  Re13  2  0.20759304  0.48053532  0.43791573  1
  Re  Re14  2  0.22068277  0.22722379  0.99759226  1
  Re  Re15  2  0.27023248  0.04293429  0.56233383  1
  Re  Re16  2  0.27469756  0.77172170  0.99712589  1
  Re  Re17  2  0.28738746  0.30131321  0.12424655  1
  Re  Re18  2  0.33636228  0.82197250  0.12405695  1
  Re  Re19  2  0.35672639  0.58307249  0.68732655  1
  Re  Re20  2  0.36913691  0.86665018  0.25235810  1
  Re  Re21  2  0.38487952  0.38465747  0.25182086  1
  Re  Re22  2  0.39342699  0.16630145  0.81242935  1
  Re  Re23  2  0.42565983  0.92791661  0.37307218  1
  Re  Re24  2  0.44497947  0.44554862  0.37257813  1
  Re  Re25  2  0.47508434  0.74692918  0.93723647  1
  Re  Re26  1  0.00000000  0.00000000  0.50000000  1
  Re  Re27  1  0.00000000  0.50000000  0.50000000  1
  Re  Re28  1  0.50000000  0.00000000  0.50000000  1
  Re  Re29  1  0.50000000  0.50000000  0.50000000  1
  Pb  Pb30  2  0.00983641  0.76047129  0.52182582  1
  Pb  Pb31  2  0.05400810  0.80320025  0.60507325  1
  Pb  Pb32  2  0.07239033  0.32187090  0.64572558  1
  Pb  Pb33  2  0.07470514  0.31959907  0.31264739  1
  Pb  Pb34  2  0.11150747  0.36651929  0.06087607  1
  Pb  Pb35  2  0.11496607  0.36552733  0.72906329  1
  Pb  Pb36  2  0.13340794  0.88420589  0.76985840  1
  Pb  Pb37  2  0.17155309  0.92772464  0.18759000  1
  Pb  Pb38  2  0.17774034  0.92721423  0.85264612  1
  Pb  Pb39  2  0.19814330  0.44875866  0.89679459  1
  Pb  Pb40  2  0.24094681  0.49000525  0.98004694  1
  Pb  Pb41  2  0.26100575  0.00989132  0.02161660  1
  Pb  Pb42  2  0.26215555  0.00708821  0.68763974  1
  Pb  Pb43  2  0.29802848  0.05489888  0.43691037  1
  Pb  Pb44  2  0.30298421  0.05379498  0.10587396  1
  Pb  Pb45  2  0.32076355  0.57086537  0.14403705  1
  Pb  Pb46  2  0.36170460  0.61776852  0.56264935  1
  Pb  Pb47  2  0.36450452  0.61503966  0.22844845  1
  Pb  Pb48  2  0.38376433  0.13453056  0.27038358  1
  Pb  Pb49  2  0.42878413  0.17800804  0.35463507  1
  Pb  Pb50  2  0.44776874  0.69722336  0.39638195  1
  Pb  Pb51  2  0.44930475  0.69458539  0.06127784  1
  Pb  Pb52  2  0.48248349  0.73954410  0.81207463  1
  Pb  Pb53  2  0.49139788  0.74160365  0.48049683  1
