# generated using pymatgen
data_U(TcSn)6
_symmetry_space_group_name_H-M   C2/m
_cell_length_a   30.11237665
_cell_length_b   5.39265765
_cell_length_c   9.66541401
_cell_angle_alpha   90.00000000
_cell_angle_beta   108.59213115
_cell_angle_gamma   90.00000000
_symmetry_Int_Tables_number   12
_chemical_formula_structural   U(TcSn)6
_chemical_formula_sum   'U6 Tc36 Sn36'
_cell_volume   1487.61532307
_cell_formula_units_Z   6
loop_
 _symmetry_equiv_pos_site_id
 _symmetry_equiv_pos_as_xyz
  1  'x, y, z'
  2  '-x, -y, -z'
  3  '-x, y, -z'
  4  'x, -y, z'
  5  'x+1/2, y+1/2, z'
  6  '-x+1/2, -y+1/2, -z'
  7  '-x+1/2, y+1/2, -z'
  8  'x+1/2, -y+1/2, z'
loop_
 _atom_site_type_symbol
 _atom_site_label
 _atom_site_symmetry_multiplicity
 _atom_site_fract_x
 _atom_site_fract_y
 _atom_site_fract_z
 _atom_site_occupancy
  U  U0  4  0.16941496  0.50000000  0.16943017  1
  U  U1  2  0.00000000  0.00000000  0.00000000  1
  Tc  Tc2  8  0.08226820  0.25022920  0.84058815  1
  Tc  Tc3  8  0.08229850  0.25043988  0.32397107  1
  Tc  Tc4  4  0.00002160  0.50000000  0.76074901  1
  Tc  Tc5  4  0.16986117  0.00000000  0.40259817  1
  Tc  Tc6  4  0.16990769  0.00000000  0.93719402  1
  Tc  Tc7  4  0.25000000  0.25000000  0.00000000  1
  Tc  Tc8  4  0.25000000  0.25000000  0.50000000  1
  Sn  Sn9  4  0.00000410  0.00000000  0.33775941  1
  Sn  Sn10  4  0.05531441  0.50000000  0.55531131  1
  Sn  Sn11  4  0.05634256  0.50000000  0.05634716  1
  Sn  Sn12  4  0.10937360  0.00000000  0.60935661  1
  Sn  Sn13  4  0.11260791  0.00000000  0.11261952  1
  Sn  Sn14  4  0.16443160  0.50000000  0.82895625  1
  Sn  Sn15  4  0.16443719  0.50000000  0.49991800  1
  Sn  Sn16  4  0.21610976  0.00000000  0.71608223  1
  Sn  Sn17  4  0.22808840  0.00000000  0.22811107  1
