# generated using pymatgen
data_U(SiPd)6
_symmetry_space_group_name_H-M   Cmcm
_cell_length_a   7.73657419
_cell_length_b   77.41456956
_cell_length_c   5.58366047
_cell_angle_alpha   90.00000000
_cell_angle_beta   90.00000000
_cell_angle_gamma   90.00000000
_symmetry_Int_Tables_number   63
_chemical_formula_structural   U(SiPd)6
_chemical_formula_sum   'U16 Si96 Pd96'
_cell_volume   3344.18580786
_cell_formula_units_Z   16
loop_
 _symmetry_equiv_pos_site_id
 _symmetry_equiv_pos_as_xyz
  1  'x, y, z'
  2  '-x, -y, -z'
  3  '-x, -y, z+1/2'
  4  'x, y, -z+1/2'
  5  'x, -y, -z'
  6  '-x, y, z'
  7  '-x, y, -z+1/2'
  8  'x, -y, z+1/2'
  9  'x+1/2, y+1/2, z'
  10  '-x+1/2, -y+1/2, -z'
  11  '-x+1/2, -y+1/2, z+1/2'
  12  'x+1/2, y+1/2, -z+1/2'
  13  'x+1/2, -y+1/2, -z'
  14  '-x+1/2, y+1/2, z'
  15  '-x+1/2, y+1/2, -z+1/2'
  16  'x+1/2, -y+1/2, z+1/2'
loop_
 _atom_site_type_symbol
 _atom_site_label
 _atom_site_symmetry_multiplicity
 _atom_site_fract_x
 _atom_site_fract_y
 _atom_site_fract_z
 _atom_site_occupancy
  U  U0  4  0.00000000  0.03143326  0.25000000  1
  U  U1  4  0.00000000  0.28138664  0.25000000  1
  U  U2  4  0.00000000  0.34376642  0.75000000  1
  U  U3  4  0.00000000  0.40626915  0.25000000  1
  Si  Si4  8  0.14557654  0.21873494  0.75000000  1
  Si  Si5  8  0.14559712  0.09384894  0.75000000  1
  Si  Si6  8  0.14560787  0.46867204  0.75000000  1
  Si  Si7  8  0.14568651  0.15620729  0.25000000  1
  Si  Si8  4  0.00000000  0.01040240  0.75000000  1
  Si  Si9  4  0.00000000  0.05135692  0.75000000  1
  Si  Si10  4  0.00000000  0.07220453  0.25000000  1
  Si  Si11  4  0.00000000  0.11451538  0.25000000  1
  Si  Si12  4  0.00000000  0.13542925  0.75000000  1
  Si  Si13  4  0.00000000  0.17709649  0.75000000  1
  Si  Si14  4  0.00000000  0.19793773  0.25000000  1
  Si  Si15  4  0.00000000  0.24058726  0.25000000  1
  Si  Si16  4  0.00000000  0.26121851  0.75000000  1
  Si  Si17  4  0.00000000  0.30203250  0.75000000  1
  Si  Si18  4  0.00000000  0.32291308  0.25000000  1
  Si  Si19  4  0.00000000  0.36457614  0.25000000  1
  Si  Si20  4  0.00000000  0.38543131  0.75000000  1
  Si  Si21  4  0.00000000  0.42627924  0.75000000  1
  Si  Si22  4  0.00000000  0.44699251  0.25000000  1
  Si  Si23  4  0.00000000  0.48960712  0.25000000  1
  Pd  Pd24  16  0.23925111  0.18752205  0.00010588  1
  Pd  Pd25  16  0.23926822  0.12501577  0.00012474  1
  Pd  Pd26  16  0.24377572  0.06254179  0.50040987  1
  Pd  Pd27  8  0.23768792  0.21881306  0.25000000  1
  Pd  Pd28  8  0.23928168  0.15626336  0.75000000  1
  Pd  Pd29  8  0.24051598  0.09375542  0.25000000  1
  Pd  Pd30  8  0.24747577  0.03122915  0.75000000  1
  Pd  Pd31  8  0.24895797  0.00000000  0.00000000  1
  Pd  Pd32  8  0.25000000  0.25000000  0.00000000  1
