# generated using pymatgen
data_U(SiNi)6
_symmetry_space_group_name_H-M   Immm
_cell_length_a   4.90188861
_cell_length_b   7.76484883
_cell_length_c   25.61555234
_cell_angle_alpha   90.00000000
_cell_angle_beta   90.00000000
_cell_angle_gamma   90.00000000
_symmetry_Int_Tables_number   71
_chemical_formula_structural   U(SiNi)6
_chemical_formula_sum   'U6 Si36 Ni36'
_cell_volume   974.99001539
_cell_formula_units_Z   6
loop_
 _symmetry_equiv_pos_site_id
 _symmetry_equiv_pos_as_xyz
  1  'x, y, z'
  2  '-x, -y, -z'
  3  '-x, -y, z'
  4  'x, y, -z'
  5  'x, -y, -z'
  6  '-x, y, z'
  7  '-x, y, -z'
  8  'x, -y, z'
  9  'x+1/2, y+1/2, z+1/2'
  10  '-x+1/2, -y+1/2, -z+1/2'
  11  '-x+1/2, -y+1/2, z+1/2'
  12  'x+1/2, y+1/2, -z+1/2'
  13  'x+1/2, -y+1/2, -z+1/2'
  14  '-x+1/2, y+1/2, z+1/2'
  15  '-x+1/2, y+1/2, -z+1/2'
  16  'x+1/2, -y+1/2, z+1/2'
loop_
 _atom_site_type_symbol
 _atom_site_label
 _atom_site_symmetry_multiplicity
 _atom_site_fract_x
 _atom_site_fract_y
 _atom_site_fract_z
 _atom_site_occupancy
  U  U0  4  0.00000000  0.00000000  0.33173780  1
  U  U1  2  0.00000000  0.50000000  0.00000000  1
  Si  Si2  8  0.00000000  0.34911486  0.33328678  1
  Si  Si3  4  0.00000000  0.00000000  0.11032388  1
  Si  Si4  4  0.00000000  0.00000000  0.21612430  1
  Si  Si5  4  0.00000000  0.00000000  0.44323819  1
  Si  Si6  4  0.00000000  0.14956847  0.00000000  1
  Si  Si7  4  0.00000000  0.50000000  0.11073279  1
  Si  Si8  4  0.00000000  0.50000000  0.23118424  1
  Si  Si9  4  0.00000000  0.50000000  0.44511342  1
  Ni  Ni10  16  0.24982199  0.24146924  0.08342537  1
  Ni  Ni11  8  0.00000000  0.24750237  0.16686335  1
  Ni  Ni12  8  0.25000000  0.25000000  0.25000000  1
  Ni  Ni13  4  0.00000000  0.25727671  0.50000000  1
