# generated using pymatgen
data_Hf6USn6
_symmetry_space_group_name_H-M   Cmcm
_cell_length_a   9.89768825
_cell_length_b   41.84451047
_cell_length_c   6.02943534
_cell_angle_alpha   90.00000000
_cell_angle_beta   90.00000000
_cell_angle_gamma   90.00000000
_symmetry_Int_Tables_number   63
_chemical_formula_structural   Hf6USn6
_chemical_formula_sum   'Hf48 U8 Sn48'
_cell_volume   2497.17457256
_cell_formula_units_Z   8
loop_
 _symmetry_equiv_pos_site_id
 _symmetry_equiv_pos_as_xyz
  1  'x, y, z'
  2  '-x, -y, -z'
  3  '-x, -y, z+1/2'
  4  'x, y, -z+1/2'
  5  'x, -y, -z'
  6  '-x, y, z'
  7  '-x, y, -z+1/2'
  8  'x, -y, z+1/2'
  9  'x+1/2, y+1/2, z'
  10  '-x+1/2, -y+1/2, -z'
  11  '-x+1/2, -y+1/2, z+1/2'
  12  'x+1/2, y+1/2, -z+1/2'
  13  'x+1/2, -y+1/2, -z'
  14  '-x+1/2, y+1/2, z'
  15  '-x+1/2, y+1/2, -z+1/2'
  16  'x+1/2, -y+1/2, z+1/2'
loop_
 _atom_site_type_symbol
 _atom_site_label
 _atom_site_symmetry_multiplicity
 _atom_site_fract_x
 _atom_site_fract_y
 _atom_site_fract_z
 _atom_site_occupancy
  Hf  Hf0  16  0.24742457  0.37504880  0.00081042  1
  Hf  Hf1  8  0.24500352  0.50000000  0.00000000  1
  Hf  Hf2  8  0.24741679  0.43723856  0.75000000  1
  Hf  Hf3  8  0.24953483  0.68745562  0.75000000  1
  Hf  Hf4  8  0.25000000  0.25000000  0.00000000  1
  U  U5  4  0.00000000  0.31176644  0.75000000  1
  U  U6  4  0.00000000  0.43596043  0.25000000  1
  Sn  Sn7  8  0.18940261  0.18749644  0.25000000  1
  Sn  Sn8  8  0.19056900  0.06187394  0.75000000  1
  Sn  Sn9  4  0.00000000  0.02071865  0.25000000  1
  Sn  Sn10  4  0.00000000  0.10380472  0.25000000  1
  Sn  Sn11  4  0.00000000  0.14582510  0.75000000  1
  Sn  Sn12  4  0.00000000  0.23152266  0.75000000  1
  Sn  Sn13  4  0.00000000  0.27299006  0.25000000  1
  Sn  Sn14  4  0.00000000  0.35354911  0.25000000  1
  Sn  Sn15  4  0.00000000  0.39505949  0.75000000  1
  Sn  Sn16  4  0.00000000  0.47788492  0.75000000  1
