# generated using pymatgen
data_U(SiIr)6
_symmetry_space_group_name_H-M   Cmmm
_cell_length_a   5.40647582
_cell_length_b   46.82526540
_cell_length_c   7.81703923
_cell_angle_alpha   90.00000000
_cell_angle_beta   90.00000000
_cell_angle_gamma   90.00000000
_symmetry_Int_Tables_number   65
_chemical_formula_structural   U(SiIr)6
_chemical_formula_sum   'U10 Si60 Ir60'
_cell_volume   1978.95903684
_cell_formula_units_Z   10
loop_
 _symmetry_equiv_pos_site_id
 _symmetry_equiv_pos_as_xyz
  1  'x, y, z'
  2  '-x, -y, -z'
  3  '-x, -y, z'
  4  'x, y, -z'
  5  'x, -y, -z'
  6  '-x, y, z'
  7  '-x, y, -z'
  8  'x, -y, z'
  9  'x+1/2, y+1/2, z'
  10  '-x+1/2, -y+1/2, -z'
  11  '-x+1/2, -y+1/2, z'
  12  'x+1/2, y+1/2, -z'
  13  'x+1/2, -y+1/2, -z'
  14  '-x+1/2, y+1/2, z'
  15  '-x+1/2, y+1/2, -z'
  16  'x+1/2, -y+1/2, z'
loop_
 _atom_site_type_symbol
 _atom_site_label
 _atom_site_symmetry_multiplicity
 _atom_site_fract_x
 _atom_site_fract_y
 _atom_site_fract_z
 _atom_site_occupancy
  U  U0  4  0.00000000  0.09990560  0.00000000  1
  U  U1  4  0.00000000  0.29989949  0.50000000  1
  U  U2  2  0.00000000  0.50000000  0.00000000  1
  Si  Si3  8  0.00000000  0.09989173  0.34157716  1
  Si  Si4  8  0.00000000  0.29990952  0.15839415  1
  Si  Si5  4  0.00000000  0.03318131  0.00000000  1
  Si  Si6  4  0.00000000  0.03319581  0.50000000  1
  Si  Si7  4  0.00000000  0.16570126  0.00000000  1
  Si  Si8  4  0.00000000  0.16785984  0.50000000  1
  Si  Si9  4  0.00000000  0.23316418  0.00000000  1
  Si  Si10  4  0.00000000  0.23323782  0.50000000  1
  Si  Si11  4  0.00000000  0.36570163  0.50000000  1
  Si  Si12  4  0.00000000  0.36785919  0.00000000  1
  Si  Si13  4  0.00000000  0.43314948  0.50000000  1
  Si  Si14  4  0.00000000  0.43326779  0.00000000  1
  Si  Si15  4  0.00000000  0.50000000  0.34145589  1
  Ir  Ir16  16  0.24998159  0.94999034  0.25311805  1
  Ir  Ir17  16  0.24999577  0.34999800  0.24999879  1
  Ir  Ir18  8  0.00000000  0.19998630  0.24685262  1
  Ir  Ir19  8  0.00000000  0.39998264  0.25316981  1
  Ir  Ir20  8  0.25000000  0.25000000  0.24677667  1
  Ir  Ir21  4  0.00000000  0.00000000  0.25307523  1
