# generated using pymatgen
data_Hf6USi6
_symmetry_space_group_name_H-M   Cmcm
_cell_length_a   8.79269711
_cell_length_b   40.43064585
_cell_length_c   5.75708990
_cell_angle_alpha   90.00000000
_cell_angle_beta   90.00000000
_cell_angle_gamma   90.00000000
_symmetry_Int_Tables_number   63
_chemical_formula_structural   Hf6USi6
_chemical_formula_sum   'Hf48 U8 Si48'
_cell_volume   2046.61335227
_cell_formula_units_Z   8
loop_
 _symmetry_equiv_pos_site_id
 _symmetry_equiv_pos_as_xyz
  1  'x, y, z'
  2  '-x, -y, -z'
  3  '-x, -y, z+1/2'
  4  'x, y, -z+1/2'
  5  'x, -y, -z'
  6  '-x, y, z'
  7  '-x, y, -z+1/2'
  8  'x, -y, z+1/2'
  9  'x+1/2, y+1/2, z'
  10  '-x+1/2, -y+1/2, -z'
  11  '-x+1/2, -y+1/2, z+1/2'
  12  'x+1/2, y+1/2, -z+1/2'
  13  'x+1/2, -y+1/2, -z'
  14  '-x+1/2, y+1/2, z'
  15  '-x+1/2, y+1/2, -z+1/2'
  16  'x+1/2, -y+1/2, z+1/2'
loop_
 _atom_site_type_symbol
 _atom_site_label
 _atom_site_symmetry_multiplicity
 _atom_site_fract_x
 _atom_site_fract_y
 _atom_site_fract_z
 _atom_site_occupancy
  Hf  Hf0  16  0.24758307  0.12496504  0.00059775  1
  Hf  Hf1  8  0.23684635  0.18740123  0.75000000  1
  Hf  Hf2  8  0.24438070  0.06251066  0.25000000  1
  Hf  Hf3  8  0.24700667  0.50000000  0.00000000  1
  Hf  Hf4  8  0.25000000  0.25000000  0.00000000  1
  U  U5  4  0.00000000  0.31118237  0.75000000  1
  U  U6  4  0.00000000  0.43364593  0.25000000  1
  Si  Si7  8  0.18134425  0.18775731  0.25000000  1
  Si  Si8  8  0.18346206  0.06177750  0.75000000  1
  Si  Si9  4  0.00000000  0.01995148  0.25000000  1
  Si  Si10  4  0.00000000  0.10365212  0.25000000  1
  Si  Si11  4  0.00000000  0.14394498  0.75000000  1
  Si  Si12  4  0.00000000  0.23320486  0.75000000  1
  Si  Si13  4  0.00000000  0.27631391  0.25000000  1
  Si  Si14  4  0.00000000  0.35184600  0.25000000  1
  Si  Si15  4  0.00000000  0.39738397  0.75000000  1
  Si  Si16  4  0.00000000  0.47560723  0.75000000  1
