# generated using pymatgen
data_U(SiRu)6
_symmetry_space_group_name_H-M   P2_1/m
_cell_length_a   7.72035877
_cell_length_b   5.36410662
_cell_length_c   9.99048457
_cell_angle_alpha   90.00000000
_cell_angle_beta   111.43557855
_cell_angle_gamma   90.00000000
_symmetry_Int_Tables_number   11
_chemical_formula_structural   U(SiRu)6
_chemical_formula_sum   'U2 Si12 Ru12'
_cell_volume   385.11583052
_cell_formula_units_Z   2
loop_
 _symmetry_equiv_pos_site_id
 _symmetry_equiv_pos_as_xyz
  1  'x, y, z'
  2  '-x, -y, -z'
  3  '-x, y+1/2, -z'
  4  'x, -y+1/2, z'
loop_
 _atom_site_type_symbol
 _atom_site_label
 _atom_site_symmetry_multiplicity
 _atom_site_fract_x
 _atom_site_fract_y
 _atom_site_fract_z
 _atom_site_occupancy
  U  U0  2  0.12544980  0.75000000  0.75091035  1
  Si  Si1  2  0.04164190  0.25000000  0.58324792  1
  Si  Si2  2  0.20830367  0.25000000  0.91655372  1
  Si  Si3  2  0.22340591  0.25000000  0.25210406  1
  Si  Si4  2  0.29164058  0.75000000  0.08321581  1
  Si  Si5  2  0.45837040  0.75000000  0.41661620  1
  Si  Si6  2  0.47130631  0.75000000  0.74790113  1
  Ru  Ru7  4  0.25570363  0.50002582  0.49999811  1
  Ru  Ru8  2  0.00000000  0.00000000  0.00000000  1
  Ru  Ru9  2  0.12600028  0.75000000  0.25014635  1
  Ru  Ru10  2  0.37581190  0.25000000  0.74977538  1
  Ru  Ru11  2  0.50000000  0.00000000  0.00000000  1
