# generated using pymatgen
data_U(TcSn)6
_symmetry_space_group_name_H-M   Cmcm
_cell_length_a   9.59145127
_cell_length_b   75.87695526
_cell_length_c   5.44566084
_cell_angle_alpha   90.00000000
_cell_angle_beta   90.00000000
_cell_angle_gamma   90.00000000
_symmetry_Int_Tables_number   63
_chemical_formula_structural   U(TcSn)6
_chemical_formula_sum   'U16 Tc96 Sn96'
_cell_volume   3963.18923766
_cell_formula_units_Z   16
loop_
 _symmetry_equiv_pos_site_id
 _symmetry_equiv_pos_as_xyz
  1  'x, y, z'
  2  '-x, -y, -z'
  3  '-x, -y, z+1/2'
  4  'x, y, -z+1/2'
  5  'x, -y, -z'
  6  '-x, y, z'
  7  '-x, y, -z+1/2'
  8  'x, -y, z+1/2'
  9  'x+1/2, y+1/2, z'
  10  '-x+1/2, -y+1/2, -z'
  11  '-x+1/2, -y+1/2, z+1/2'
  12  'x+1/2, y+1/2, -z+1/2'
  13  'x+1/2, -y+1/2, -z'
  14  '-x+1/2, y+1/2, z'
  15  '-x+1/2, y+1/2, -z+1/2'
  16  'x+1/2, -y+1/2, z+1/2'
loop_
 _atom_site_type_symbol
 _atom_site_label
 _atom_site_symmetry_multiplicity
 _atom_site_fract_x
 _atom_site_fract_y
 _atom_site_fract_z
 _atom_site_occupancy
  U  U0  4  0.00000000  0.03167379  0.25000000  1
  U  U1  4  0.00000000  0.28128394  0.25000000  1
  U  U2  4  0.00000000  0.34376584  0.75000000  1
  U  U3  4  0.00000000  0.40612114  0.25000000  1
  Tc  Tc4  16  0.24568831  0.37507586  0.00079203  1
  Tc  Tc5  16  0.24580442  0.31243556  0.00127394  1
  Tc  Tc6  16  0.24586663  0.06197589  0.00950820  1
  Tc  Tc7  8  0.23666627  0.03157727  0.75000000  1
  Tc  Tc8  8  0.24088429  0.00000000  0.00000000  1
  Tc  Tc9  8  0.24218840  0.40601778  0.75000000  1
  Tc  Tc10  8  0.24366952  0.28129757  0.75000000  1
  Tc  Tc11  8  0.24570551  0.34375686  0.25000000  1
  Tc  Tc12  8  0.25000000  0.25000000  0.00000000  1
  Sn  Sn13  8  0.16170871  0.15626309  0.25000000  1
  Sn  Sn14  8  0.16188385  0.21877014  0.75000000  1
  Sn  Sn15  8  0.16257735  0.09374934  0.75000000  1
  Sn  Sn16  8  0.16306839  0.46910514  0.75000000  1
  Sn  Sn17  4  0.00000000  0.01047623  0.75000000  1
  Sn  Sn18  4  0.00000000  0.05330037  0.75000000  1
  Sn  Sn19  4  0.00000000  0.07422046  0.25000000  1
  Sn  Sn20  4  0.00000000  0.11476895  0.25000000  1
  Sn  Sn21  4  0.00000000  0.13543737  0.75000000  1
  Sn  Sn22  4  0.00000000  0.17709821  0.75000000  1
  Sn  Sn23  4  0.00000000  0.19782355  0.25000000  1
  Sn  Sn24  4  0.00000000  0.23882361  0.25000000  1
  Sn  Sn25  4  0.00000000  0.25967165  0.75000000  1
  Sn  Sn26  4  0.00000000  0.30199192  0.75000000  1
  Sn  Sn27  4  0.00000000  0.32293013  0.25000000  1
  Sn  Sn28  4  0.00000000  0.36455884  0.25000000  1
  Sn  Sn29  4  0.00000000  0.38553923  0.75000000  1
  Sn  Sn30  4  0.00000000  0.42799646  0.75000000  1
  Sn  Sn31  4  0.00000000  0.44879252  0.25000000  1
  Sn  Sn32  4  0.00000000  0.48973361  0.25000000  1
