# generated using pymatgen
data_U(SnIr)6
_symmetry_space_group_name_H-M   Cmcm
_cell_length_a   9.07871230
_cell_length_b   38.53744282
_cell_length_c   5.56075172
_cell_angle_alpha   90.00000000
_cell_angle_beta   90.00000000
_cell_angle_gamma   90.00000000
_symmetry_Int_Tables_number   63
_chemical_formula_structural   U(SnIr)6
_chemical_formula_sum   'U8 Sn48 Ir48'
_cell_volume   1945.54218546
_cell_formula_units_Z   8
loop_
 _symmetry_equiv_pos_site_id
 _symmetry_equiv_pos_as_xyz
  1  'x, y, z'
  2  '-x, -y, -z'
  3  '-x, -y, z+1/2'
  4  'x, y, -z+1/2'
  5  'x, -y, -z'
  6  '-x, y, z'
  7  '-x, y, -z+1/2'
  8  'x, -y, z+1/2'
  9  'x+1/2, y+1/2, z'
  10  '-x+1/2, -y+1/2, -z'
  11  '-x+1/2, -y+1/2, z+1/2'
  12  'x+1/2, y+1/2, -z+1/2'
  13  'x+1/2, -y+1/2, -z'
  14  '-x+1/2, y+1/2, z'
  15  '-x+1/2, y+1/2, -z+1/2'
  16  'x+1/2, -y+1/2, z+1/2'
loop_
 _atom_site_type_symbol
 _atom_site_label
 _atom_site_symmetry_multiplicity
 _atom_site_fract_x
 _atom_site_fract_y
 _atom_site_fract_z
 _atom_site_occupancy
  U  U0  4  0.00000000  0.31024749  0.25000000  1
  U  U1  4  0.00000000  0.43620815  0.75000000  1
  Sn  Sn2  8  0.17133457  0.18711797  0.75000000  1
  Sn  Sn3  8  0.17194289  0.93910802  0.75000000  1
  Sn  Sn4  4  0.00000000  0.02169449  0.75000000  1
  Sn  Sn5  4  0.00000000  0.10340007  0.75000000  1
  Sn  Sn6  4  0.00000000  0.14461114  0.25000000  1
  Sn  Sn7  4  0.00000000  0.22718993  0.25000000  1
  Sn  Sn8  4  0.00000000  0.26948805  0.75000000  1
  Sn  Sn9  4  0.00000000  0.35329857  0.75000000  1
  Sn  Sn10  4  0.00000000  0.39428449  0.25000000  1
  Sn  Sn11  4  0.00000000  0.47859744  0.25000000  1
  Ir  Ir12  16  0.24806624  0.37507945  0.50127739  1
  Ir  Ir13  8  0.24179176  0.31224078  0.75000000  1
  Ir  Ir14  8  0.24392479  0.50000000  0.00000000  1
  Ir  Ir15  8  0.24527244  0.43722732  0.25000000  1
  Ir  Ir16  8  0.25000000  0.25000000  0.00000000  1
