# generated using pymatgen
data_U(ReSn)6
_symmetry_space_group_name_H-M   P-1
_cell_length_a   5.37161824
_cell_length_b   9.94873711
_cell_length_c   37.54598140
_cell_angle_alpha   91.58191292
_cell_angle_beta   90.05117678
_cell_angle_gamma   90.25763751
_symmetry_Int_Tables_number   2
_chemical_formula_structural   U(ReSn)6
_chemical_formula_sum   'U8 Re48 Sn48'
_cell_volume   2005.70191835
_cell_formula_units_Z   8
loop_
 _symmetry_equiv_pos_site_id
 _symmetry_equiv_pos_as_xyz
  1  'x, y, z'
  2  '-x, -y, -z'
loop_
 _atom_site_type_symbol
 _atom_site_label
 _atom_site_symmetry_multiplicity
 _atom_site_fract_x
 _atom_site_fract_y
 _atom_site_fract_z
 _atom_site_occupancy
  U  U0  2  0.24995620  0.40643569  0.18723950  1
  U  U1  2  0.24997940  0.03282589  0.93678535  1
  U  U2  2  0.24999437  0.65608989  0.68746109  1
  U  U3  2  0.25003702  0.28032840  0.43791865  1
  Re  Re4  2  0.00387899  0.30554293  0.87581503  1
  Re  Re5  2  0.00512992  0.61966261  0.24900549  1
  Re  Re6  2  0.00522942  0.44308348  0.62591786  1
  Re  Re7  2  0.00566347  0.06802568  0.37606353  1
  Re  Re8  2  0.00640042  0.86933233  0.74913504  1
  Re  Re9  2  0.00789697  0.81699439  0.87568341  1
  Re  Re10  2  0.00971047  0.23794296  0.99929966  1
  Re  Re11  2  0.24889250  0.83491536  0.81316992  1
  Re  Re12  2  0.24892285  0.58599363  0.31358712  1
  Re  Re13  2  0.24913688  0.96054813  0.56372591  1
  Re  Re14  2  0.24920062  0.20351199  0.06501330  1
  Re  Re15  2  0.25071899  0.35431884  0.81084855  1
  Re  Re16  2  0.25086462  0.73502540  0.06069373  1
  Re  Re17  2  0.25104786  0.10172908  0.31133469  1
  Re  Re18  2  0.25108918  0.47625682  0.56158089  1
  Re  Re19  2  0.49152199  0.23792961  0.99905775  1
  Re  Re20  2  0.49170930  0.81688494  0.87565562  1
  Re  Re21  2  0.49394169  0.86943264  0.74900290  1
  Re  Re22  2  0.49400078  0.06813436  0.37593786  1
  Re  Re23  2  0.49440473  0.44318577  0.62578433  1
  Re  Re24  2  0.49514232  0.61969704  0.24889075  1
  Re  Re25  2  0.49684514  0.30551914  0.87592399  1
  Re  Re26  1  0.00000000  0.00000000  0.50000000  1
  Re  Re27  1  0.00000000  0.50000000  0.50000000  1
  Re  Re28  1  0.50000000  0.00000000  0.50000000  1
  Re  Re29  1  0.50000000  0.50000000  0.50000000  1
  Sn  Sn30  2  0.24954351  0.69876992  0.60411800  1
  Sn  Sn31  2  0.24957554  0.94559866  0.10646315  1
  Sn  Sn32  2  0.24960991  0.57023149  0.85606782  1
  Sn  Sn33  2  0.24971211  0.32319294  0.35455122  1
  Sn  Sn34  2  0.24980203  0.36454213  0.93789637  1
  Sn  Sn35  2  0.24993768  0.61459824  0.43756018  1
  Sn  Sn36  2  0.24994323  0.49026164  0.02062053  1
  Sn  Sn37  2  0.24995755  0.07396851  0.85238638  1
  Sn  Sn38  2  0.24996710  0.99029660  0.68743262  1
  Sn  Sn39  2  0.24997399  0.45160946  0.10283274  1
  Sn  Sn40  2  0.24997752  0.11535727  0.77049366  1
  Sn  Sn41  2  0.24997918  0.73961877  0.18756464  1
  Sn  Sn42  2  0.24999671  0.94669113  0.43737517  1
  Sn  Sn43  2  0.24999677  0.19775640  0.60438206  1
  Sn  Sn44  2  0.25000256  0.82286400  0.35415081  1
  Sn  Sn45  2  0.25000592  0.86451326  0.27090725  1
  Sn  Sn46  2  0.25003982  0.32224593  0.68749614  1
  Sn  Sn47  2  0.25006591  0.07289526  0.18779907  1
  Sn  Sn48  2  0.25010199  0.23690118  0.52183895  1
  Sn  Sn49  2  0.25014830  0.69874164  0.93802925  1
  Sn  Sn50  2  0.25028531  0.36391681  0.27056110  1
  Sn  Sn51  2  0.25038030  0.74263838  0.51922065  1
  Sn  Sn52  2  0.25043788  0.98911022  0.02078902  1
  Sn  Sn53  2  0.25047556  0.61281759  0.77093199  1
