# generated using pymatgen
data_U(SnRu)6
_symmetry_space_group_name_H-M   Cmmm
_cell_length_a   5.55316394
_cell_length_b   48.06319025
_cell_length_c   8.95999278
_cell_angle_alpha   90.00000000
_cell_angle_beta   90.00000000
_cell_angle_gamma   90.00000000
_symmetry_Int_Tables_number   65
_chemical_formula_structural   U(SnRu)6
_chemical_formula_sum   'U10 Sn60 Ru60'
_cell_volume   2391.44693617
_cell_formula_units_Z   10
loop_
 _symmetry_equiv_pos_site_id
 _symmetry_equiv_pos_as_xyz
  1  'x, y, z'
  2  '-x, -y, -z'
  3  '-x, -y, z'
  4  'x, y, -z'
  5  'x, -y, -z'
  6  '-x, y, z'
  7  '-x, y, -z'
  8  'x, -y, z'
  9  'x+1/2, y+1/2, z'
  10  '-x+1/2, -y+1/2, -z'
  11  '-x+1/2, -y+1/2, z'
  12  'x+1/2, y+1/2, -z'
  13  'x+1/2, -y+1/2, -z'
  14  '-x+1/2, y+1/2, z'
  15  '-x+1/2, y+1/2, -z'
  16  'x+1/2, -y+1/2, z'
loop_
 _atom_site_type_symbol
 _atom_site_label
 _atom_site_symmetry_multiplicity
 _atom_site_fract_x
 _atom_site_fract_y
 _atom_site_fract_z
 _atom_site_occupancy
  U  U0  4  0.00000000  0.19994052  0.50000000  1
  U  U1  4  0.00000000  0.39998308  0.00000000  1
  U  U2  2  0.00000000  0.00000000  0.00000000  1
  Sn  Sn3  8  0.00000000  0.19980466  0.17036393  1
  Sn  Sn4  8  0.00000000  0.39976768  0.32963683  1
  Sn  Sn5  4  0.00000000  0.00000000  0.32926529  1
  Sn  Sn6  4  0.00000000  0.06659516  0.00000000  1
  Sn  Sn7  4  0.00000000  0.06690920  0.50000000  1
  Sn  Sn8  4  0.00000000  0.13256413  0.50000000  1
  Sn  Sn9  4  0.00000000  0.13413521  0.00000000  1
  Sn  Sn10  4  0.00000000  0.26658561  0.50000000  1
  Sn  Sn11  4  0.00000000  0.26687507  0.00000000  1
  Sn  Sn12  4  0.00000000  0.33255835  0.00000000  1
  Sn  Sn13  4  0.00000000  0.33412795  0.50000000  1
  Sn  Sn14  4  0.00000000  0.46668520  0.00000000  1
  Sn  Sn15  4  0.00000000  0.46673067  0.50000000  1
  Ru  Ru16  16  0.24988924  0.44994148  0.24876299  1
  Ru  Ru17  16  0.24999575  0.15000762  0.24999671  1
  Ru  Ru18  8  0.00000000  0.09999616  0.24535754  1
  Ru  Ru19  8  0.00000000  0.29998723  0.25463089  1
  Ru  Ru20  8  0.25000000  0.25000000  0.25109501  1
  Ru  Ru21  4  0.00000000  0.50000000  0.24849733  1
