# generated using pymatgen
data_U(PbAu)6
_symmetry_space_group_name_H-M   P-1
_cell_length_a   5.89734650
_cell_length_b   10.37623674
_cell_length_c   41.33607761
_cell_angle_alpha   83.59203044
_cell_angle_beta   89.89251946
_cell_angle_gamma   88.83614952
_symmetry_Int_Tables_number   2
_chemical_formula_structural   U(PbAu)6
_chemical_formula_sum   'U8 Pb48 Au48'
_cell_volume   2513.12641549
_cell_formula_units_Z   8
loop_
 _symmetry_equiv_pos_site_id
 _symmetry_equiv_pos_as_xyz
  1  'x, y, z'
  2  '-x, -y, -z'
loop_
 _atom_site_type_symbol
 _atom_site_label
 _atom_site_symmetry_multiplicity
 _atom_site_fract_x
 _atom_site_fract_y
 _atom_site_fract_z
 _atom_site_occupancy
  U  U0  2  0.24995292  0.28155858  0.43670351  1
  U  U1  2  0.24999895  0.65622495  0.68752281  1
  U  U2  2  0.25000416  0.03120300  0.93773867  1
  U  U3  2  0.25007448  0.40560640  0.18838301  1
  Pb  Pb4  2  0.24859606  0.70584721  0.93781640  1
  Pb  Pb5  2  0.24863020  0.33296106  0.68766089  1
  Pb  Pb6  2  0.24864635  0.95705660  0.43773882  1
  Pb  Pb7  2  0.24866518  0.08279465  0.18784629  1
  Pb  Pb8  2  0.24993730  0.73888786  0.52239754  1
  Pb  Pb9  2  0.24995443  0.61471435  0.77064307  1
  Pb  Pb10  2  0.24996939  0.82282614  0.35424988  1
  Pb  Pb11  2  0.24997496  0.44731244  0.10544291  1
  Pb  Pb12  2  0.24997606  0.19813004  0.60400878  1
  Pb  Pb13  2  0.24997868  0.94814178  0.10366165  1
  Pb  Pb14  2  0.24998366  0.36444598  0.27107637  1
  Pb  Pb15  2  0.25000002  0.07259351  0.85481920  1
  Pb  Pb16  2  0.25001115  0.69758572  0.60449264  1
  Pb  Pb17  2  0.25001655  0.32303596  0.35402204  1
  Pb  Pb18  2  0.25002409  0.11458748  0.77079860  1
  Pb  Pb19  2  0.25002423  0.24033001  0.51929227  1
  Pb  Pb20  2  0.25002813  0.48963621  0.02069655  1
  Pb  Pb21  2  0.25002840  0.86463975  0.27082489  1
  Pb  Pb22  2  0.25003334  0.57346386  0.85314741  1
  Pb  Pb23  2  0.25004019  0.98956455  0.02078879  1
  Pb  Pb24  2  0.25129456  0.60495008  0.43751052  1
  Pb  Pb25  2  0.25134134  0.35673582  0.93756398  1
  Pb  Pb26  2  0.25136795  0.97952918  0.68734860  1
  Pb  Pb27  2  0.25137959  0.72951594  0.18758007  1
  Au  Au28  2  0.00045190  0.44344344  0.62492208  1
  Au  Au29  2  0.00059550  0.23889476  0.99966436  1
  Au  Au30  2  0.00062899  0.30906046  0.87541008  1
  Au  Au31  2  0.00086316  0.06840102  0.37505713  1
  Au  Au32  2  0.00094017  0.86913100  0.74969941  1
  Au  Au33  2  0.00149178  0.61921423  0.24953955  1
  Au  Au34  2  0.00208063  0.81554226  0.87527388  1
  Au  Au35  2  0.24722700  0.35226591  0.81248733  1
  Au  Au36  2  0.24727699  0.47486613  0.56238182  1
  Au  Au37  2  0.24735104  0.09988223  0.31245221  1
  Au  Au38  2  0.24769252  0.73233747  0.06237286  1
  Au  Au39  2  0.25232152  0.20490704  0.06272821  1
  Au  Au40  2  0.25265095  0.58764030  0.31255179  1
  Au  Au41  2  0.25269372  0.96273428  0.56255308  1
  Au  Au42  2  0.25279350  0.83508046  0.81261998  1
  Au  Au43  2  0.49798090  0.30847153  0.87538094  1
  Au  Au44  2  0.49839248  0.23866541  0.00012426  1
  Au  Au45  2  0.49857775  0.06805107  0.37543737  1
  Au  Au46  2  0.49898267  0.44310613  0.62530790  1
  Au  Au47  2  0.49903514  0.61886539  0.24992899  1
  Au  Au48  2  0.49918414  0.81509299  0.87528949  1
  Au  Au49  2  0.49960519  0.86876579  0.75009738  1
  Au  Au50  1  0.00000000  0.00000000  0.50000000  1
  Au  Au51  1  0.00000000  0.50000000  0.50000000  1
  Au  Au52  1  0.50000000  0.00000000  0.50000000  1
  Au  Au53  1  0.50000000  0.50000000  0.50000000  1
