# generated using pymatgen
data_U(NbSn)6
_symmetry_space_group_name_H-M   Cmcm
_cell_length_a   9.63767328
_cell_length_b   78.50465974
_cell_length_c   5.77563466
_cell_angle_alpha   90.00000000
_cell_angle_beta   90.00000000
_cell_angle_gamma   90.00000000
_symmetry_Int_Tables_number   63
_chemical_formula_structural   U(NbSn)6
_chemical_formula_sum   'U16 Nb96 Sn96'
_cell_volume   4369.85824880
_cell_formula_units_Z   16
loop_
 _symmetry_equiv_pos_site_id
 _symmetry_equiv_pos_as_xyz
  1  'x, y, z'
  2  '-x, -y, -z'
  3  '-x, -y, z+1/2'
  4  'x, y, -z+1/2'
  5  'x, -y, -z'
  6  '-x, y, z'
  7  '-x, y, -z+1/2'
  8  'x, -y, z+1/2'
  9  'x+1/2, y+1/2, z'
  10  '-x+1/2, -y+1/2, -z'
  11  '-x+1/2, -y+1/2, z+1/2'
  12  'x+1/2, y+1/2, -z+1/2'
  13  'x+1/2, -y+1/2, -z'
  14  '-x+1/2, y+1/2, z'
  15  '-x+1/2, y+1/2, -z+1/2'
  16  'x+1/2, -y+1/2, z+1/2'
loop_
 _atom_site_type_symbol
 _atom_site_label
 _atom_site_symmetry_multiplicity
 _atom_site_fract_x
 _atom_site_fract_y
 _atom_site_fract_z
 _atom_site_occupancy
  U  U0  4  0.00000000  0.09355186  0.25000000  1
  U  U1  4  0.00000000  0.15625292  0.75000000  1
  U  U2  4  0.00000000  0.21887008  0.25000000  1
  U  U3  4  0.00000000  0.46842246  0.25000000  1
  Nb  Nb4  16  0.24874801  0.56237774  0.50079557  1
  Nb  Nb5  16  0.24990884  0.62497189  0.50005310  1
  Nb  Nb6  16  0.24992204  0.18756556  0.00011542  1
  Nb  Nb7  8  0.24744772  0.53126666  0.25000000  1
  Nb  Nb8  8  0.24825289  0.50000000  0.00000000  1
  Nb  Nb9  8  0.24828965  0.71884769  0.75000000  1
  Nb  Nb10  8  0.24896699  0.65622285  0.25000000  1
  Nb  Nb11  8  0.24963592  0.09368635  0.75000000  1
  Nb  Nb12  8  0.25000000  0.25000000  0.00000000  1
  Sn  Sn13  8  0.16517395  0.71884938  0.25000000  1
  Sn  Sn14  8  0.16567779  0.59372964  0.25000000  1
  Sn  Sn15  8  0.16635978  0.65626203  0.75000000  1
  Sn  Sn16  8  0.16677955  0.03119168  0.75000000  1
  Sn  Sn17  4  0.00000000  0.01042403  0.25000000  1
  Sn  Sn18  4  0.00000000  0.05218551  0.25000000  1
  Sn  Sn19  4  0.00000000  0.07281744  0.75000000  1
  Sn  Sn20  4  0.00000000  0.11449645  0.75000000  1
  Sn  Sn21  4  0.00000000  0.13542963  0.25000000  1
  Sn  Sn22  4  0.00000000  0.17695918  0.25000000  1
  Sn  Sn23  4  0.00000000  0.19819546  0.75000000  1
  Sn  Sn24  4  0.00000000  0.23939120  0.75000000  1
  Sn  Sn25  4  0.00000000  0.26002034  0.25000000  1
  Sn  Sn26  4  0.00000000  0.30218663  0.25000000  1
  Sn  Sn27  4  0.00000000  0.32281200  0.75000000  1
  Sn  Sn28  4  0.00000000  0.36467534  0.75000000  1
  Sn  Sn29  4  0.00000000  0.38533040  0.25000000  1
  Sn  Sn30  4  0.00000000  0.42709520  0.25000000  1
  Sn  Sn31  4  0.00000000  0.44776034  0.75000000  1
  Sn  Sn32  4  0.00000000  0.48955704  0.75000000  1
