# generated using pymatgen
data_U(GeAu)6
_symmetry_space_group_name_H-M   C2/m
_cell_length_a   10.25568135
_cell_length_b   10.41802509
_cell_length_c   5.70949365
_cell_angle_alpha   90.00000000
_cell_angle_beta   123.78490393
_cell_angle_gamma   90.00000000
_symmetry_Int_Tables_number   12
_chemical_formula_structural   U(GeAu)6
_chemical_formula_sum   'U2 Ge12 Au12'
_cell_volume   507.01055299
_cell_formula_units_Z   2
loop_
 _symmetry_equiv_pos_site_id
 _symmetry_equiv_pos_as_xyz
  1  'x, y, z'
  2  '-x, -y, -z'
  3  '-x, y, -z'
  4  'x, -y, z'
  5  'x+1/2, y+1/2, z'
  6  '-x+1/2, -y+1/2, -z'
  7  '-x+1/2, y+1/2, -z'
  8  'x+1/2, -y+1/2, z'
loop_
 _atom_site_type_symbol
 _atom_site_label
 _atom_site_symmetry_multiplicity
 _atom_site_fract_x
 _atom_site_fract_y
 _atom_site_fract_z
 _atom_site_occupancy
  U  U0  2  0.00000000  0.00000000  0.00000000  1
  Ge  Ge1  4  0.00000000  0.13433585  0.50000000  1
  Ge  Ge2  4  0.00000000  0.29379951  0.00000000  1
  Ge  Ge3  4  0.14268059  0.50000000  0.64137253  1
  Au  Au4  4  0.24438895  0.50000000  0.24416267  1
  Au  Au5  4  0.25000000  0.25000000  0.00000000  1
  Au  Au6  4  0.25000000  0.25000000  0.50000000  1
