# generated using pymatgen
data_U(PdPb)6
_symmetry_space_group_name_H-M   Cmcm
_cell_length_a   9.68511720
_cell_length_b   80.15593920
_cell_length_c   5.76497485
_cell_angle_alpha   90.00000000
_cell_angle_beta   90.00000000
_cell_angle_gamma   90.00000000
_symmetry_Int_Tables_number   63
_chemical_formula_structural   U(PdPb)6
_chemical_formula_sum   'U16 Pd96 Pb96'
_cell_volume   4475.46334240
_cell_formula_units_Z   16
loop_
 _symmetry_equiv_pos_site_id
 _symmetry_equiv_pos_as_xyz
  1  'x, y, z'
  2  '-x, -y, -z'
  3  '-x, -y, z+1/2'
  4  'x, y, -z+1/2'
  5  'x, -y, -z'
  6  '-x, y, z'
  7  '-x, y, -z+1/2'
  8  'x, -y, z+1/2'
  9  'x+1/2, y+1/2, z'
  10  '-x+1/2, -y+1/2, -z'
  11  '-x+1/2, -y+1/2, z+1/2'
  12  'x+1/2, y+1/2, -z+1/2'
  13  'x+1/2, -y+1/2, -z'
  14  '-x+1/2, y+1/2, z'
  15  '-x+1/2, y+1/2, -z+1/2'
  16  'x+1/2, -y+1/2, z+1/2'
loop_
 _atom_site_type_symbol
 _atom_site_label
 _atom_site_symmetry_multiplicity
 _atom_site_fract_x
 _atom_site_fract_y
 _atom_site_fract_z
 _atom_site_occupancy
  U  U0  4  0.00000000  0.03150737  0.75000000  1
  U  U1  4  0.00000000  0.28121033  0.75000000  1
  U  U2  4  0.00000000  0.34373381  0.25000000  1
  U  U3  4  0.00000000  0.40577221  0.75000000  1
  Pd  Pd4  16  0.24565446  0.37507351  0.50044029  1
  Pd  Pd5  16  0.24587572  0.06214772  0.50211129  1
  Pd  Pd6  16  0.24610365  0.31248844  0.50005842  1
  Pd  Pd7  8  0.23758962  0.03122039  0.25000000  1
  Pd  Pd8  8  0.23969898  0.00000000  0.00000000  1
  Pd  Pd9  8  0.24394398  0.40631640  0.25000000  1
  Pd  Pd10  8  0.24578412  0.34374721  0.75000000  1
  Pd  Pd11  8  0.24601106  0.28123578  0.25000000  1
  Pd  Pd12  8  0.25000000  0.25000000  0.00000000  1
  Pb  Pb13  8  0.17238036  0.46881992  0.25000000  1
  Pb  Pb14  8  0.17287631  0.15625261  0.75000000  1
  Pb  Pb15  8  0.17289435  0.21883421  0.25000000  1
  Pb  Pb16  8  0.17335813  0.09378707  0.25000000  1
  Pb  Pb17  4  0.00000000  0.01039152  0.25000000  1
  Pb  Pb18  4  0.00000000  0.05225701  0.25000000  1
  Pb  Pb19  4  0.00000000  0.07303456  0.75000000  1
  Pb  Pb20  4  0.00000000  0.11459753  0.75000000  1
  Pb  Pb21  4  0.00000000  0.13541626  0.25000000  1
  Pb  Pb22  4  0.00000000  0.17712197  0.25000000  1
  Pb  Pb23  4  0.00000000  0.19798827  0.75000000  1
  Pb  Pb24  4  0.00000000  0.23987242  0.75000000  1
  Pb  Pb25  4  0.00000000  0.26072568  0.25000000  1
  Pb  Pb26  4  0.00000000  0.30211997  0.25000000  1
  Pb  Pb27  4  0.00000000  0.32285442  0.75000000  1
  Pb  Pb28  4  0.00000000  0.36447107  0.75000000  1
  Pb  Pb29  4  0.00000000  0.38541398  0.25000000  1
  Pb  Pb30  4  0.00000000  0.42701467  0.25000000  1
  Pb  Pb31  4  0.00000000  0.44774301  0.75000000  1
  Pb  Pb32  4  0.00000000  0.48959787  0.75000000  1
