# generated using pymatgen
data_U(PtPb)6
_symmetry_space_group_name_H-M   Cmcm
_cell_length_a   9.94209250
_cell_length_b   79.49149817
_cell_length_c   5.73474869
_cell_angle_alpha   90.00000000
_cell_angle_beta   90.00000000
_cell_angle_gamma   90.00000000
_symmetry_Int_Tables_number   63
_chemical_formula_structural   U(PtPb)6
_chemical_formula_sum   'U16 Pt96 Pb96'
_cell_volume   4532.23972269
_cell_formula_units_Z   16
loop_
 _symmetry_equiv_pos_site_id
 _symmetry_equiv_pos_as_xyz
  1  'x, y, z'
  2  '-x, -y, -z'
  3  '-x, -y, z+1/2'
  4  'x, y, -z+1/2'
  5  'x, -y, -z'
  6  '-x, y, z'
  7  '-x, y, -z+1/2'
  8  'x, -y, z+1/2'
  9  'x+1/2, y+1/2, z'
  10  '-x+1/2, -y+1/2, -z'
  11  '-x+1/2, -y+1/2, z+1/2'
  12  'x+1/2, y+1/2, -z+1/2'
  13  'x+1/2, -y+1/2, -z'
  14  '-x+1/2, y+1/2, z'
  15  '-x+1/2, y+1/2, -z+1/2'
  16  'x+1/2, -y+1/2, z+1/2'
loop_
 _atom_site_type_symbol
 _atom_site_label
 _atom_site_symmetry_multiplicity
 _atom_site_fract_x
 _atom_site_fract_y
 _atom_site_fract_z
 _atom_site_occupancy
  U  U0  4  0.00000000  0.03155334  0.25000000  1
  U  U1  4  0.00000000  0.28118174  0.25000000  1
  U  U2  4  0.00000000  0.34377569  0.75000000  1
  U  U3  4  0.00000000  0.40640101  0.25000000  1
  Pt  Pt4  16  0.24425663  0.37501698  0.00005735  1
  Pt  Pt5  16  0.24450858  0.31247105  0.00008409  1
  Pt  Pt6  16  0.24550616  0.06240898  0.00129364  1
  Pt  Pt7  8  0.23512817  0.96866031  0.25000000  1
  Pt  Pt8  8  0.23703551  0.00000000  0.00000000  1
  Pt  Pt9  8  0.24233657  0.40626037  0.75000000  1
  Pt  Pt10  8  0.24376937  0.28122389  0.75000000  1
  Pt  Pt11  8  0.24437441  0.34374350  0.25000000  1
  Pt  Pt12  8  0.25000000  0.25000000  0.00000000  1
  Pb  Pb13  8  0.17789423  0.84373183  0.75000000  1
  Pb  Pb14  8  0.17806118  0.21879776  0.75000000  1
  Pb  Pb15  8  0.17818941  0.46883032  0.75000000  1
  Pb  Pb16  8  0.17838426  0.90612752  0.25000000  1
  Pb  Pb17  4  0.00000000  0.01044719  0.75000000  1
  Pb  Pb18  4  0.00000000  0.05240400  0.75000000  1
  Pb  Pb19  4  0.00000000  0.07311885  0.25000000  1
  Pb  Pb20  4  0.00000000  0.11465536  0.25000000  1
  Pb  Pb21  4  0.00000000  0.13544279  0.75000000  1
  Pb  Pb22  4  0.00000000  0.17712904  0.75000000  1
  Pb  Pb23  4  0.00000000  0.19798919  0.25000000  1
  Pb  Pb24  4  0.00000000  0.23971961  0.25000000  1
  Pb  Pb25  4  0.00000000  0.26051348  0.75000000  1
  Pb  Pb26  4  0.00000000  0.30213737  0.75000000  1
  Pb  Pb27  4  0.00000000  0.32290673  0.25000000  1
  Pb  Pb28  4  0.00000000  0.36459530  0.25000000  1
  Pb  Pb29  4  0.00000000  0.38548549  0.75000000  1
  Pb  Pb30  4  0.00000000  0.42725409  0.75000000  1
  Pb  Pb31  4  0.00000000  0.44795188  0.25000000  1
  Pb  Pb32  4  0.00000000  0.48965494  0.25000000  1
