# generated using pymatgen
data_U(CuSn)6
_symmetry_space_group_name_H-M   Cmmm
_cell_length_a   5.53502037
_cell_length_b   48.02802190
_cell_length_c   9.10294742
_cell_angle_alpha   90.00000000
_cell_angle_beta   90.00000000
_cell_angle_gamma   90.00000000
_symmetry_Int_Tables_number   65
_chemical_formula_structural   U(CuSn)6
_chemical_formula_sum   'U10 Cu60 Sn60'
_cell_volume   2419.89185562
_cell_formula_units_Z   10
loop_
 _symmetry_equiv_pos_site_id
 _symmetry_equiv_pos_as_xyz
  1  'x, y, z'
  2  '-x, -y, -z'
  3  '-x, -y, z'
  4  'x, y, -z'
  5  'x, -y, -z'
  6  '-x, y, z'
  7  '-x, y, -z'
  8  'x, -y, z'
  9  'x+1/2, y+1/2, z'
  10  '-x+1/2, -y+1/2, -z'
  11  '-x+1/2, -y+1/2, z'
  12  'x+1/2, y+1/2, -z'
  13  'x+1/2, -y+1/2, -z'
  14  '-x+1/2, y+1/2, z'
  15  '-x+1/2, y+1/2, -z'
  16  'x+1/2, -y+1/2, z'
loop_
 _atom_site_type_symbol
 _atom_site_label
 _atom_site_symmetry_multiplicity
 _atom_site_fract_x
 _atom_site_fract_y
 _atom_site_fract_z
 _atom_site_occupancy
  U  U0  4  0.00000000  0.09996248  0.50000000  1
  U  U1  4  0.00000000  0.29995817  0.00000000  1
  U  U2  2  0.00000000  0.50000000  0.50000000  1
  Cu  Cu3  16  0.24996750  0.05000627  0.25209492  1
  Cu  Cu4  16  0.24999977  0.34999971  0.25000017  1
  Cu  Cu5  8  0.00000000  0.19997557  0.24766426  1
  Cu  Cu6  8  0.00000000  0.39997670  0.25232922  1
  Cu  Cu7  8  0.25000000  0.25000000  0.24779763  1
  Cu  Cu8  4  0.00000000  0.00000000  0.25205367  1
  Sn  Sn9  8  0.00000000  0.09989650  0.16812068  1
  Sn  Sn10  8  0.00000000  0.29989572  0.33189139  1
  Sn  Sn11  4  0.00000000  0.03314550  0.00000000  1
  Sn  Sn12  4  0.00000000  0.03319690  0.50000000  1
  Sn  Sn13  4  0.00000000  0.16677032  0.50000000  1
  Sn  Sn14  4  0.00000000  0.16703943  0.00000000  1
  Sn  Sn15  4  0.00000000  0.23315619  0.50000000  1
  Sn  Sn16  4  0.00000000  0.23315718  0.00000000  1
  Sn  Sn17  4  0.00000000  0.36676811  0.00000000  1
  Sn  Sn18  4  0.00000000  0.36703979  0.50000000  1
  Sn  Sn19  4  0.00000000  0.43312322  0.00000000  1
  Sn  Sn20  4  0.00000000  0.43314030  0.50000000  1
  Sn  Sn21  4  0.00000000  0.50000000  0.16755429  1
