# generated using pymatgen
data_U(CdGe)6
_symmetry_space_group_name_H-M   Cmcm
_cell_length_a   9.07558957
_cell_length_b   82.99884524
_cell_length_c   5.95532069
_cell_angle_alpha   90.00000000
_cell_angle_beta   90.00000000
_cell_angle_gamma   90.00000000
_symmetry_Int_Tables_number   63
_chemical_formula_structural   U(CdGe)6
_chemical_formula_sum   'U16 Cd96 Ge96'
_cell_volume   4485.92543020
_cell_formula_units_Z   16
loop_
 _symmetry_equiv_pos_site_id
 _symmetry_equiv_pos_as_xyz
  1  'x, y, z'
  2  '-x, -y, -z'
  3  '-x, -y, z+1/2'
  4  'x, y, -z+1/2'
  5  'x, -y, -z'
  6  '-x, y, z'
  7  '-x, y, -z+1/2'
  8  'x, -y, z+1/2'
  9  'x+1/2, y+1/2, z'
  10  '-x+1/2, -y+1/2, -z'
  11  '-x+1/2, -y+1/2, z+1/2'
  12  'x+1/2, y+1/2, -z+1/2'
  13  'x+1/2, -y+1/2, -z'
  14  '-x+1/2, y+1/2, z'
  15  '-x+1/2, y+1/2, -z+1/2'
  16  'x+1/2, -y+1/2, z+1/2'
loop_
 _atom_site_type_symbol
 _atom_site_label
 _atom_site_symmetry_multiplicity
 _atom_site_fract_x
 _atom_site_fract_y
 _atom_site_fract_z
 _atom_site_occupancy
  U  U0  4  0.00000000  0.03139088  0.25000000  1
  U  U1  4  0.00000000  0.28182487  0.25000000  1
  U  U2  4  0.00000000  0.34377938  0.75000000  1
  U  U3  4  0.00000000  0.40599306  0.25000000  1
  Cd  Cd4  16  0.24352421  0.06266968  0.00115477  1
  Cd  Cd5  16  0.24480411  0.12503719  0.00057599  1
  Cd  Cd6  16  0.24483490  0.18746184  0.00064638  1
  Cd  Cd7  8  0.23724817  0.21884500  0.25000000  1
  Cd  Cd8  8  0.24035148  0.09375490  0.25000000  1
  Cd  Cd9  8  0.24201050  0.00000000  0.00000000  1
  Cd  Cd10  8  0.24510273  0.15624199  0.75000000  1
  Cd  Cd11  8  0.24917806  0.03141429  0.75000000  1
  Cd  Cd12  8  0.25000000  0.25000000  0.00000000  1
  Ge  Ge13  8  0.15416331  0.09404607  0.75000000  1
  Ge  Ge14  8  0.15496990  0.21864261  0.75000000  1
  Ge  Ge15  8  0.15636660  0.15621686  0.25000000  1
  Ge  Ge16  8  0.15958393  0.46906525  0.75000000  1
  Ge  Ge17  4  0.00000000  0.01088740  0.75000000  1
  Ge  Ge18  4  0.00000000  0.04797483  0.75000000  1
  Ge  Ge19  4  0.00000000  0.06890134  0.25000000  1
  Ge  Ge20  4  0.00000000  0.11463609  0.25000000  1
  Ge  Ge21  4  0.00000000  0.13536855  0.75000000  1
  Ge  Ge22  4  0.00000000  0.17709979  0.75000000  1
  Ge  Ge23  4  0.00000000  0.19783700  0.25000000  1
  Ge  Ge24  4  0.00000000  0.24404794  0.25000000  1
  Ge  Ge25  4  0.00000000  0.26539300  0.75000000  1
  Ge  Ge26  4  0.00000000  0.30140930  0.75000000  1
  Ge  Ge27  4  0.00000000  0.32308253  0.25000000  1
  Ge  Ge28  4  0.00000000  0.36445155  0.25000000  1
  Ge  Ge29  4  0.00000000  0.38596778  0.75000000  1
  Ge  Ge30  4  0.00000000  0.42303241  0.75000000  1
  Ge  Ge31  4  0.00000000  0.44419989  0.25000000  1
  Ge  Ge32  4  0.00000000  0.49052340  0.25000000  1
