# generated using pymatgen
data_U(TaGe)6
_symmetry_space_group_name_H-M   Cmcm
_cell_length_a   8.57055658
_cell_length_b   19.94988752
_cell_length_c   5.75883347
_cell_angle_alpha   90.00000000
_cell_angle_beta   90.00000000
_cell_angle_gamma   90.00000000
_symmetry_Int_Tables_number   63
_chemical_formula_structural   U(TaGe)6
_chemical_formula_sum   'U4 Ta24 Ge24'
_cell_volume   984.65479023
_cell_formula_units_Z   4
loop_
 _symmetry_equiv_pos_site_id
 _symmetry_equiv_pos_as_xyz
  1  'x, y, z'
  2  '-x, -y, -z'
  3  '-x, -y, z+1/2'
  4  'x, y, -z+1/2'
  5  'x, -y, -z'
  6  '-x, y, z'
  7  '-x, y, -z+1/2'
  8  'x, -y, z+1/2'
  9  'x+1/2, y+1/2, z'
  10  '-x+1/2, -y+1/2, -z'
  11  '-x+1/2, -y+1/2, z+1/2'
  12  'x+1/2, y+1/2, -z+1/2'
  13  'x+1/2, -y+1/2, -z'
  14  '-x+1/2, y+1/2, z'
  15  '-x+1/2, y+1/2, -z+1/2'
  16  'x+1/2, -y+1/2, z+1/2'
loop_
 _atom_site_type_symbol
 _atom_site_label
 _atom_site_symmetry_multiplicity
 _atom_site_fract_x
 _atom_site_fract_y
 _atom_site_fract_z
 _atom_site_occupancy
  U  U0  4  0.00000000  0.12384588  0.25000000  1
  Ta  Ta1  8  0.24382782  0.37495161  0.25000000  1
  Ta  Ta2  8  0.24670894  0.50000000  0.00000000  1
  Ta  Ta3  8  0.25000000  0.25000000  0.00000000  1
  Ge  Ge4  8  0.17403311  0.37472991  0.75000000  1
  Ge  Ge5  4  0.00000000  0.04167422  0.75000000  1
  Ge  Ge6  4  0.00000000  0.20221226  0.75000000  1
  Ge  Ge7  4  0.00000000  0.28539065  0.25000000  1
  Ge  Ge8  4  0.00000000  0.45839643  0.25000000  1
