# generated using pymatgen
data_U(MnGe)6
_symmetry_space_group_name_H-M   Cmcm
_cell_length_a   8.13288551
_cell_length_b   35.72738696
_cell_length_c   5.15520681
_cell_angle_alpha   90.00000000
_cell_angle_beta   90.00000000
_cell_angle_gamma   90.00000000
_symmetry_Int_Tables_number   63
_chemical_formula_structural   U(MnGe)6
_chemical_formula_sum   'U8 Mn48 Ge48'
_cell_volume   1497.93167690
_cell_formula_units_Z   8
loop_
 _symmetry_equiv_pos_site_id
 _symmetry_equiv_pos_as_xyz
  1  'x, y, z'
  2  '-x, -y, -z'
  3  '-x, -y, z+1/2'
  4  'x, y, -z+1/2'
  5  'x, -y, -z'
  6  '-x, y, z'
  7  '-x, y, -z+1/2'
  8  'x, -y, z+1/2'
  9  'x+1/2, y+1/2, z'
  10  '-x+1/2, -y+1/2, -z'
  11  '-x+1/2, -y+1/2, z+1/2'
  12  'x+1/2, y+1/2, -z+1/2'
  13  'x+1/2, -y+1/2, -z'
  14  '-x+1/2, y+1/2, z'
  15  '-x+1/2, y+1/2, -z+1/2'
  16  'x+1/2, -y+1/2, z+1/2'
loop_
 _atom_site_type_symbol
 _atom_site_label
 _atom_site_symmetry_multiplicity
 _atom_site_fract_x
 _atom_site_fract_y
 _atom_site_fract_z
 _atom_site_occupancy
  U  U0  4  0.00000000  0.06424522  0.75000000  1
  U  U1  4  0.00000000  0.19145711  0.25000000  1
  Mn  Mn2  16  0.24751013  0.37543155  0.00198786  1
  Mn  Mn3  8  0.24860161  0.50000000  0.00000000  1
  Mn  Mn4  8  0.24885766  0.18761374  0.75000000  1
  Mn  Mn5  8  0.24950539  0.43749993  0.75000000  1
  Mn  Mn6  8  0.25000000  0.25000000  0.00000000  1
  Ge  Ge7  8  0.15687627  0.43902462  0.25000000  1
  Ge  Ge8  8  0.15707991  0.31355301  0.75000000  1
  Ge  Ge9  4  0.00000000  0.02069943  0.25000000  1
  Ge  Ge10  4  0.00000000  0.10570031  0.25000000  1
  Ge  Ge11  4  0.00000000  0.14701827  0.75000000  1
  Ge  Ge12  4  0.00000000  0.23167677  0.75000000  1
  Ge  Ge13  4  0.00000000  0.27415251  0.25000000  1
  Ge  Ge14  4  0.00000000  0.35474461  0.25000000  1
  Ge  Ge15  4  0.00000000  0.39684400  0.75000000  1
  Ge  Ge16  4  0.00000000  0.47852408  0.75000000  1
