# generated using pymatgen
data_U(MnSn)6
_symmetry_space_group_name_H-M   Cmcm
_cell_length_a   9.22518494
_cell_length_b   38.01515583
_cell_length_c   5.49654819
_cell_angle_alpha   90.00000000
_cell_angle_beta   90.00000000
_cell_angle_gamma   90.00000000
_symmetry_Int_Tables_number   63
_chemical_formula_structural   U(MnSn)6
_chemical_formula_sum   'U8 Mn48 Sn48'
_cell_volume   1927.62209871
_cell_formula_units_Z   8
loop_
 _symmetry_equiv_pos_site_id
 _symmetry_equiv_pos_as_xyz
  1  'x, y, z'
  2  '-x, -y, -z'
  3  '-x, -y, z+1/2'
  4  'x, y, -z+1/2'
  5  'x, -y, -z'
  6  '-x, y, z'
  7  '-x, y, -z+1/2'
  8  'x, -y, z+1/2'
  9  'x+1/2, y+1/2, z'
  10  '-x+1/2, -y+1/2, -z'
  11  '-x+1/2, -y+1/2, z+1/2'
  12  'x+1/2, y+1/2, -z+1/2'
  13  'x+1/2, -y+1/2, -z'
  14  '-x+1/2, y+1/2, z'
  15  '-x+1/2, y+1/2, -z+1/2'
  16  'x+1/2, -y+1/2, z+1/2'
loop_
 _atom_site_type_symbol
 _atom_site_label
 _atom_site_symmetry_multiplicity
 _atom_site_fract_x
 _atom_site_fract_y
 _atom_site_fract_z
 _atom_site_occupancy
  U  U0  4  0.00000000  0.31001569  0.75000000  1
  U  U1  4  0.00000000  0.43576149  0.25000000  1
  Mn  Mn2  16  0.24533107  0.12475904  0.50106240  1
  Mn  Mn3  8  0.24623422  0.06227980  0.25000000  1
  Mn  Mn4  8  0.24701860  0.00000000  0.00000000  1
  Mn  Mn5  8  0.24867475  0.18759062  0.75000000  1
  Mn  Mn6  8  0.25000000  0.25000000  0.00000000  1
  Sn  Sn7  8  0.17534484  0.18671265  0.25000000  1
  Sn  Sn8  8  0.17551088  0.06048591  0.75000000  1
  Sn  Sn9  4  0.00000000  0.02126203  0.25000000  1
  Sn  Sn10  4  0.00000000  0.10325945  0.25000000  1
  Sn  Sn11  4  0.00000000  0.14460671  0.75000000  1
  Sn  Sn12  4  0.00000000  0.22623981  0.75000000  1
  Sn  Sn13  4  0.00000000  0.26902669  0.25000000  1
  Sn  Sn14  4  0.00000000  0.35252775  0.25000000  1
  Sn  Sn15  4  0.00000000  0.39460630  0.75000000  1
  Sn  Sn16  4  0.00000000  0.47915000  0.75000000  1
