# generated using pymatgen
data_U(TiPb)6
_symmetry_space_group_name_H-M   Cmcm
_cell_length_a   10.01932724
_cell_length_b   80.01899556
_cell_length_c   5.77557835
_cell_angle_alpha   90.00000000
_cell_angle_beta   90.00000000
_cell_angle_gamma   90.00000000
_symmetry_Int_Tables_number   63
_chemical_formula_structural   U(TiPb)6
_chemical_formula_sum   'U16 Ti96 Pb96'
_cell_volume   4630.49198825
_cell_formula_units_Z   16
loop_
 _symmetry_equiv_pos_site_id
 _symmetry_equiv_pos_as_xyz
  1  'x, y, z'
  2  '-x, -y, -z'
  3  '-x, -y, z+1/2'
  4  'x, y, -z+1/2'
  5  'x, -y, -z'
  6  '-x, y, z'
  7  '-x, y, -z+1/2'
  8  'x, -y, z+1/2'
  9  'x+1/2, y+1/2, z'
  10  '-x+1/2, -y+1/2, -z'
  11  '-x+1/2, -y+1/2, z+1/2'
  12  'x+1/2, y+1/2, -z+1/2'
  13  'x+1/2, -y+1/2, -z'
  14  '-x+1/2, y+1/2, z'
  15  '-x+1/2, y+1/2, -z+1/2'
  16  'x+1/2, -y+1/2, z+1/2'
loop_
 _atom_site_type_symbol
 _atom_site_label
 _atom_site_symmetry_multiplicity
 _atom_site_fract_x
 _atom_site_fract_y
 _atom_site_fract_z
 _atom_site_occupancy
  U  U0  4  0.00000000  0.09367718  0.25000000  1
  U  U1  4  0.00000000  0.15623942  0.75000000  1
  U  U2  4  0.00000000  0.21881083  0.25000000  1
  U  U3  4  0.00000000  0.46856232  0.25000000  1
  Ti  Ti4  16  0.24553190  0.43753975  0.00036267  1
  Ti  Ti5  16  0.24943668  0.12501059  0.50004817  1
  Ti  Ti6  16  0.24955506  0.18751487  0.00008943  1
  Ti  Ti7  8  0.24061473  0.50000000  0.00000000  1
  Ti  Ti8  8  0.24066272  0.46877400  0.75000000  1
  Ti  Ti9  8  0.24939863  0.15625035  0.25000000  1
  Ti  Ti10  8  0.24950637  0.09375499  0.75000000  1
  Ti  Ti11  8  0.24985430  0.21877202  0.75000000  1
  Ti  Ti12  8  0.25000000  0.25000000  0.00000000  1
  Pb  Pb13  8  0.16763919  0.28112915  0.75000000  1
  Pb  Pb14  8  0.16811409  0.40619980  0.75000000  1
  Pb  Pb15  8  0.16816495  0.34375184  0.25000000  1
  Pb  Pb16  8  0.16927384  0.03122386  0.75000000  1
  Pb  Pb17  4  0.00000000  0.01037683  0.25000000  1
  Pb  Pb18  4  0.00000000  0.05215361  0.25000000  1
  Pb  Pb19  4  0.00000000  0.07286683  0.75000000  1
  Pb  Pb20  4  0.00000000  0.11453606  0.75000000  1
  Pb  Pb21  4  0.00000000  0.13540402  0.25000000  1
  Pb  Pb22  4  0.00000000  0.17710274  0.25000000  1
  Pb  Pb23  4  0.00000000  0.19791179  0.75000000  1
  Pb  Pb24  4  0.00000000  0.23939387  0.75000000  1
  Pb  Pb25  4  0.00000000  0.26010938  0.25000000  1
  Pb  Pb26  4  0.00000000  0.30211631  0.25000000  1
  Pb  Pb27  4  0.00000000  0.32290180  0.75000000  1
  Pb  Pb28  4  0.00000000  0.36457835  0.75000000  1
  Pb  Pb29  4  0.00000000  0.38533935  0.25000000  1
  Pb  Pb30  4  0.00000000  0.42694392  0.25000000  1
  Pb  Pb31  4  0.00000000  0.44772081  0.75000000  1
  Pb  Pb32  4  0.00000000  0.48953197  0.75000000  1
