# generated using pymatgen
data_U(SnAu)6
_symmetry_space_group_name_H-M   Cmcm
_cell_length_a   9.69033422
_cell_length_b   40.93805039
_cell_length_c   5.83123356
_cell_angle_alpha   90.00000000
_cell_angle_beta   90.00000000
_cell_angle_gamma   90.00000000
_symmetry_Int_Tables_number   63
_chemical_formula_structural   U(SnAu)6
_chemical_formula_sum   'U8 Sn48 Au48'
_cell_volume   2313.27012352
_cell_formula_units_Z   8
loop_
 _symmetry_equiv_pos_site_id
 _symmetry_equiv_pos_as_xyz
  1  'x, y, z'
  2  '-x, -y, -z'
  3  '-x, -y, z+1/2'
  4  'x, y, -z+1/2'
  5  'x, -y, -z'
  6  '-x, y, z'
  7  '-x, y, -z+1/2'
  8  'x, -y, z+1/2'
  9  'x+1/2, y+1/2, z'
  10  '-x+1/2, -y+1/2, -z'
  11  '-x+1/2, -y+1/2, z+1/2'
  12  'x+1/2, y+1/2, -z+1/2'
  13  'x+1/2, -y+1/2, -z'
  14  '-x+1/2, y+1/2, z'
  15  '-x+1/2, y+1/2, -z+1/2'
  16  'x+1/2, -y+1/2, z+1/2'
loop_
 _atom_site_type_symbol
 _atom_site_label
 _atom_site_symmetry_multiplicity
 _atom_site_fract_x
 _atom_site_fract_y
 _atom_site_fract_z
 _atom_site_occupancy
  U  U0  4  0.00000000  0.06708687  0.75000000  1
  U  U1  4  0.00000000  0.18980769  0.25000000  1
  Sn  Sn2  8  0.16755619  0.31284797  0.75000000  1
  Sn  Sn3  8  0.17281508  0.44044281  0.25000000  1
  Sn  Sn4  4  0.00000000  0.02286485  0.25000000  1
  Sn  Sn5  4  0.00000000  0.10606962  0.25000000  1
  Sn  Sn6  4  0.00000000  0.14756474  0.75000000  1
  Sn  Sn7  4  0.00000000  0.22821420  0.75000000  1
  Sn  Sn8  4  0.00000000  0.27134478  0.25000000  1
  Sn  Sn9  4  0.00000000  0.35514447  0.25000000  1
  Sn  Sn10  4  0.00000000  0.39714747  0.75000000  1
  Sn  Sn11  4  0.00000000  0.47757498  0.75000000  1
  Au  Au12  16  0.24178615  0.12443875  0.50523129  1
  Au  Au13  8  0.23718370  0.00000000  0.00000000  1
  Au  Au14  8  0.23963115  0.18800301  0.75000000  1
  Au  Au15  8  0.23976478  0.06299477  0.25000000  1
  Au  Au16  8  0.25000000  0.25000000  0.00000000  1
