# generated using pymatgen
data_U(VPb)6
_symmetry_space_group_name_H-M   Cmmm
_cell_length_a   5.61582836
_cell_length_b   48.72222857
_cell_length_c   9.70320555
_cell_angle_alpha   90.00000000
_cell_angle_beta   90.00000000
_cell_angle_gamma   90.00000000
_symmetry_Int_Tables_number   65
_chemical_formula_structural   U(VPb)6
_chemical_formula_sum   'U10 V60 Pb60'
_cell_volume   2654.94911474
_cell_formula_units_Z   10
loop_
 _symmetry_equiv_pos_site_id
 _symmetry_equiv_pos_as_xyz
  1  'x, y, z'
  2  '-x, -y, -z'
  3  '-x, -y, z'
  4  'x, y, -z'
  5  'x, -y, -z'
  6  '-x, y, z'
  7  '-x, y, -z'
  8  'x, -y, z'
  9  'x+1/2, y+1/2, z'
  10  '-x+1/2, -y+1/2, -z'
  11  '-x+1/2, -y+1/2, z'
  12  'x+1/2, y+1/2, -z'
  13  'x+1/2, -y+1/2, -z'
  14  '-x+1/2, y+1/2, z'
  15  '-x+1/2, y+1/2, -z'
  16  'x+1/2, -y+1/2, z'
loop_
 _atom_site_type_symbol
 _atom_site_label
 _atom_site_symmetry_multiplicity
 _atom_site_fract_x
 _atom_site_fract_y
 _atom_site_fract_z
 _atom_site_occupancy
  U  U0  4  0.00000000  0.20000302  0.00000000  1
  U  U1  4  0.00000000  0.40001281  0.50000000  1
  U  U2  2  0.00000000  0.00000000  0.50000000  1
  V  V3  16  0.24985354  0.04997476  0.25457006  1
  V  V4  16  0.24999455  0.35000195  0.24999889  1
  V  V5  8  0.00000000  0.10004636  0.25526070  1
  V  V6  8  0.00000000  0.30005290  0.24472516  1
  V  V7  8  0.25000000  0.25000000  0.24529500  1
  V  V8  4  0.00000000  0.50000000  0.25459568  1
  Pb  Pb9  8  0.00000000  0.20010477  0.31896584  1
  Pb  Pb10  8  0.00000000  0.40011777  0.18102722  1
  Pb  Pb11  4  0.00000000  0.00000000  0.18081881  1
  Pb  Pb12  4  0.00000000  0.06660185  0.00000000  1
  Pb  Pb13  4  0.00000000  0.06668704  0.50000000  1
  Pb  Pb14  4  0.00000000  0.13310061  0.00000000  1
  Pb  Pb15  4  0.00000000  0.13345509  0.50000000  1
  Pb  Pb16  4  0.00000000  0.26660198  0.50000000  1
  Pb  Pb17  4  0.00000000  0.26670065  0.00000000  1
  Pb  Pb18  4  0.00000000  0.33310455  0.50000000  1
  Pb  Pb19  4  0.00000000  0.33346223  0.00000000  1
  Pb  Pb20  4  0.00000000  0.46669414  0.50000000  1
  Pb  Pb21  4  0.00000000  0.46672994  0.00000000  1
