# generated using pymatgen
data_U(SnPt)6
_symmetry_space_group_name_H-M   Cmcm
_cell_length_a   8.99804421
_cell_length_b   79.51674350
_cell_length_c   5.75547288
_cell_angle_alpha   90.00000000
_cell_angle_beta   90.00000000
_cell_angle_gamma   90.00000000
_symmetry_Int_Tables_number   63
_chemical_formula_structural   U(SnPt)6
_chemical_formula_sum   'U16 Sn96 Pt96'
_cell_volume   4118.01306728
_cell_formula_units_Z   16
loop_
 _symmetry_equiv_pos_site_id
 _symmetry_equiv_pos_as_xyz
  1  'x, y, z'
  2  '-x, -y, -z'
  3  '-x, -y, z+1/2'
  4  'x, y, -z+1/2'
  5  'x, -y, -z'
  6  '-x, y, z'
  7  '-x, y, -z+1/2'
  8  'x, -y, z+1/2'
  9  'x+1/2, y+1/2, z'
  10  '-x+1/2, -y+1/2, -z'
  11  '-x+1/2, -y+1/2, z+1/2'
  12  'x+1/2, y+1/2, -z+1/2'
  13  'x+1/2, -y+1/2, -z'
  14  '-x+1/2, y+1/2, z'
  15  '-x+1/2, y+1/2, -z+1/2'
  16  'x+1/2, -y+1/2, z+1/2'
loop_
 _atom_site_type_symbol
 _atom_site_label
 _atom_site_symmetry_multiplicity
 _atom_site_fract_x
 _atom_site_fract_y
 _atom_site_fract_z
 _atom_site_occupancy
  U  U0  4  0.00000000  0.09360835  0.75000000  1
  U  U1  4  0.00000000  0.15621784  0.25000000  1
  U  U2  4  0.00000000  0.21856284  0.75000000  1
  U  U3  4  0.00000000  0.46848448  0.75000000  1
  Sn  Sn4  8  0.16266157  0.28103240  0.25000000  1
  Sn  Sn5  8  0.16283216  0.34375162  0.75000000  1
  Sn  Sn6  8  0.16283582  0.40636430  0.25000000  1
  Sn  Sn7  8  0.16398093  0.03124013  0.25000000  1
  Sn  Sn8  4  0.00000000  0.01041254  0.75000000  1
  Sn  Sn9  4  0.00000000  0.05192107  0.75000000  1
  Sn  Sn10  4  0.00000000  0.07268219  0.25000000  1
  Sn  Sn11  4  0.00000000  0.11461263  0.25000000  1
  Sn  Sn12  4  0.00000000  0.13540045  0.75000000  1
  Sn  Sn13  4  0.00000000  0.17711505  0.75000000  1
  Sn  Sn14  4  0.00000000  0.19779778  0.25000000  1
  Sn  Sn15  4  0.00000000  0.23966726  0.25000000  1
  Sn  Sn16  4  0.00000000  0.26037709  0.75000000  1
  Sn  Sn17  4  0.00000000  0.30204679  0.75000000  1
  Sn  Sn18  4  0.00000000  0.32287199  0.25000000  1
  Sn  Sn19  4  0.00000000  0.36457237  0.25000000  1
  Sn  Sn20  4  0.00000000  0.38543421  0.75000000  1
  Sn  Sn21  4  0.00000000  0.42670941  0.75000000  1
  Sn  Sn22  4  0.00000000  0.44742762  0.25000000  1
  Sn  Sn23  4  0.00000000  0.48965764  0.25000000  1
  Pt  Pt24  16  0.24229593  0.43757457  0.50097767  1
  Pt  Pt25  16  0.24387632  0.31244349  0.00017758  1
  Pt  Pt26  16  0.24398771  0.37501895  0.00002209  1
  Pt  Pt27  8  0.23832093  0.46871066  0.25000000  1
  Pt  Pt28  8  0.24035700  0.50000000  0.00000000  1
  Pt  Pt29  8  0.24374352  0.34374899  0.25000000  1
  Pt  Pt30  8  0.24412487  0.28113172  0.75000000  1
  Pt  Pt31  8  0.24633619  0.40625297  0.75000000  1
  Pt  Pt32  8  0.25000000  0.25000000  0.00000000  1
