# generated using pymatgen
data_U(SiAg)6
_symmetry_space_group_name_H-M   Cmcm
_cell_length_a   8.29855856
_cell_length_b   79.10464884
_cell_length_c   5.61793214
_cell_angle_alpha   90.00000000
_cell_angle_beta   90.00000000
_cell_angle_gamma   90.00000000
_symmetry_Int_Tables_number   63
_chemical_formula_structural   U(SiAg)6
_chemical_formula_sum   'U16 Si96 Ag96'
_cell_volume   3687.91717294
_cell_formula_units_Z   16
loop_
 _symmetry_equiv_pos_site_id
 _symmetry_equiv_pos_as_xyz
  1  'x, y, z'
  2  '-x, -y, -z'
  3  '-x, -y, z+1/2'
  4  'x, y, -z+1/2'
  5  'x, -y, -z'
  6  '-x, y, z'
  7  '-x, y, -z+1/2'
  8  'x, -y, z+1/2'
  9  'x+1/2, y+1/2, z'
  10  '-x+1/2, -y+1/2, -z'
  11  '-x+1/2, -y+1/2, z+1/2'
  12  'x+1/2, y+1/2, -z+1/2'
  13  'x+1/2, -y+1/2, -z'
  14  '-x+1/2, y+1/2, z'
  15  '-x+1/2, y+1/2, -z+1/2'
  16  'x+1/2, -y+1/2, z+1/2'
loop_
 _atom_site_type_symbol
 _atom_site_label
 _atom_site_symmetry_multiplicity
 _atom_site_fract_x
 _atom_site_fract_y
 _atom_site_fract_z
 _atom_site_occupancy
  U  U0  4  0.00000000  0.03107771  0.25000000  1
  U  U1  4  0.00000000  0.28164945  0.25000000  1
  U  U2  4  0.00000000  0.34374365  0.75000000  1
  U  U3  4  0.00000000  0.40595031  0.25000000  1
  Si  Si4  8  0.13655875  0.15625524  0.25000000  1
  Si  Si5  8  0.13726256  0.21795683  0.75000000  1
  Si  Si6  8  0.13732881  0.46959988  0.75000000  1
  Si  Si7  8  0.13749974  0.09486328  0.75000000  1
  Si  Si8  4  0.00000000  0.01081013  0.75000000  1
  Si  Si9  4  0.00000000  0.05024900  0.75000000  1
  Si  Si10  4  0.00000000  0.07047222  0.25000000  1
  Si  Si11  4  0.00000000  0.11465250  0.25000000  1
  Si  Si12  4  0.00000000  0.13493411  0.75000000  1
  Si  Si13  4  0.00000000  0.17775171  0.75000000  1
  Si  Si14  4  0.00000000  0.19731827  0.25000000  1
  Si  Si15  4  0.00000000  0.24242714  0.25000000  1
  Si  Si16  4  0.00000000  0.26277708  0.75000000  1
  Si  Si17  4  0.00000000  0.30162725  0.75000000  1
  Si  Si18  4  0.00000000  0.32311977  0.25000000  1
  Si  Si19  4  0.00000000  0.36442406  0.25000000  1
  Si  Si20  4  0.00000000  0.38576771  0.75000000  1
  Si  Si21  4  0.00000000  0.42490978  0.75000000  1
  Si  Si22  4  0.00000000  0.44570477  0.25000000  1
  Si  Si23  4  0.00000000  0.48996812  0.25000000  1
  Ag  Ag24  16  0.24688346  0.12495835  0.00038321  1
  Ag  Ag25  16  0.24720146  0.18758171  0.00025721  1
  Ag  Ag26  16  0.24823047  0.06264410  0.50099666  1
  Ag  Ag27  8  0.23793518  0.21895524  0.25000000  1
  Ag  Ag28  8  0.24029876  0.09358943  0.25000000  1
  Ag  Ag29  8  0.24292510  0.15626174  0.75000000  1
  Ag  Ag30  8  0.24500023  0.46857924  0.25000000  1
  Ag  Ag31  8  0.24920710  0.00000000  0.00000000  1
  Ag  Ag32  8  0.25000000  0.25000000  0.00000000  1
