# generated using pymatgen
data_U(AgSn)6
_symmetry_space_group_name_H-M   Cmmm
_cell_length_a   5.85838884
_cell_length_b   50.74686105
_cell_length_c   10.01752774
_cell_angle_alpha   90.00000000
_cell_angle_beta   90.00000000
_cell_angle_gamma   90.00000000
_symmetry_Int_Tables_number   65
_chemical_formula_structural   U(AgSn)6
_chemical_formula_sum   'U10 Ag60 Sn60'
_cell_volume   2978.15934931
_cell_formula_units_Z   10
loop_
 _symmetry_equiv_pos_site_id
 _symmetry_equiv_pos_as_xyz
  1  'x, y, z'
  2  '-x, -y, -z'
  3  '-x, -y, z'
  4  'x, y, -z'
  5  'x, -y, -z'
  6  '-x, y, z'
  7  '-x, y, -z'
  8  'x, -y, z'
  9  'x+1/2, y+1/2, z'
  10  '-x+1/2, -y+1/2, -z'
  11  '-x+1/2, -y+1/2, z'
  12  'x+1/2, y+1/2, -z'
  13  'x+1/2, -y+1/2, -z'
  14  '-x+1/2, y+1/2, z'
  15  '-x+1/2, y+1/2, -z'
  16  'x+1/2, -y+1/2, z'
loop_
 _atom_site_type_symbol
 _atom_site_label
 _atom_site_symmetry_multiplicity
 _atom_site_fract_x
 _atom_site_fract_y
 _atom_site_fract_z
 _atom_site_occupancy
  U  U0  4  0.00000000  0.20015369  0.00000000  1
  U  U1  4  0.00000000  0.40014397  0.50000000  1
  U  U2  2  0.00000000  0.00000000  0.50000000  1
  Ag  Ag3  16  0.24994166  0.04999194  0.24962709  1
  Ag  Ag4  16  0.24999815  0.15000079  0.24999909  1
  Ag  Ag5  8  0.00000000  0.10001841  0.24983740  1
  Ag  Ag6  8  0.00000000  0.30001825  0.25017207  1
  Ag  Ag7  8  0.25000000  0.25000000  0.25037952  1
  Ag  Ag8  4  0.00000000  0.50000000  0.24965285  1
  Sn  Sn9  8  0.00000000  0.20000356  0.33335444  1
  Sn  Sn10  8  0.00000000  0.39999821  0.16665114  1
  Sn  Sn11  4  0.00000000  0.00000000  0.16663701  1
  Sn  Sn12  4  0.00000000  0.06687648  0.50000000  1
  Sn  Sn13  4  0.00000000  0.06694399  0.00000000  1
  Sn  Sn14  4  0.00000000  0.13258366  0.50000000  1
  Sn  Sn15  4  0.00000000  0.13361748  0.00000000  1
  Sn  Sn16  4  0.00000000  0.26688127  0.00000000  1
  Sn  Sn17  4  0.00000000  0.26692312  0.50000000  1
  Sn  Sn18  4  0.00000000  0.33258404  0.00000000  1
  Sn  Sn19  4  0.00000000  0.33361619  0.50000000  1
  Sn  Sn20  4  0.00000000  0.46683996  0.50000000  1
  Sn  Sn21  4  0.00000000  0.46694577  0.00000000  1
