# generated using pymatgen
data_U(MnGe)6
_symmetry_space_group_name_H-M   Cmcm
_cell_length_a   8.12856109
_cell_length_b   71.35208252
_cell_length_c   5.15806071
_cell_angle_alpha   90.00000000
_cell_angle_beta   90.00000000
_cell_angle_gamma   90.00000000
_symmetry_Int_Tables_number   63
_chemical_formula_structural   U(MnGe)6
_chemical_formula_sum   'U16 Mn96 Ge96'
_cell_volume   2991.62240114
_cell_formula_units_Z   16
loop_
 _symmetry_equiv_pos_site_id
 _symmetry_equiv_pos_as_xyz
  1  'x, y, z'
  2  '-x, -y, -z'
  3  '-x, -y, z+1/2'
  4  'x, y, -z+1/2'
  5  'x, -y, -z'
  6  '-x, y, z'
  7  '-x, y, -z+1/2'
  8  'x, -y, z+1/2'
  9  'x+1/2, y+1/2, z'
  10  '-x+1/2, -y+1/2, -z'
  11  '-x+1/2, -y+1/2, z+1/2'
  12  'x+1/2, y+1/2, -z+1/2'
  13  'x+1/2, -y+1/2, -z'
  14  '-x+1/2, y+1/2, z'
  15  '-x+1/2, y+1/2, -z+1/2'
  16  'x+1/2, -y+1/2, z+1/2'
loop_
 _atom_site_type_symbol
 _atom_site_label
 _atom_site_symmetry_multiplicity
 _atom_site_fract_x
 _atom_site_fract_y
 _atom_site_fract_z
 _atom_site_occupancy
  U  U0  4  0.00000000  0.03201684  0.25000000  1
  U  U1  4  0.00000000  0.28059424  0.25000000  1
  U  U2  4  0.00000000  0.34376753  0.75000000  1
  U  U3  4  0.00000000  0.40710933  0.25000000  1
  Mn  Mn4  16  0.24758854  0.12501688  0.00030614  1
  Mn  Mn5  16  0.24773823  0.18750978  0.00018805  1
  Mn  Mn6  16  0.24941510  0.06240586  0.00084876  1
  Mn  Mn7  8  0.24768630  0.21880832  0.25000000  1
  Mn  Mn8  8  0.24771614  0.15625077  0.75000000  1
  Mn  Mn9  8  0.24876536  0.50000000  0.00000000  1
  Mn  Mn10  8  0.24906336  0.09371416  0.25000000  1
  Mn  Mn11  8  0.24973186  0.03127267  0.75000000  1
  Mn  Mn12  8  0.25000000  0.25000000  0.00000000  1
  Ge  Ge13  8  0.15628377  0.15624917  0.25000000  1
  Ge  Ge14  8  0.15634339  0.21863948  0.75000000  1
  Ge  Ge15  8  0.15660623  0.09389826  0.75000000  1
  Ge  Ge16  8  0.15681276  0.46893067  0.75000000  1
  Ge  Ge17  4  0.00000000  0.01031929  0.75000000  1
  Ge  Ge18  4  0.00000000  0.05294645  0.75000000  1
  Ge  Ge19  4  0.00000000  0.07370645  0.25000000  1
  Ge  Ge20  4  0.00000000  0.11466696  0.25000000  1
  Ge  Ge21  4  0.00000000  0.13543446  0.75000000  1
  Ge  Ge22  4  0.00000000  0.17707936  0.75000000  1
  Ge  Ge23  4  0.00000000  0.19778641  0.25000000  1
  Ge  Ge24  4  0.00000000  0.23910055  0.25000000  1
  Ge  Ge25  4  0.00000000  0.25977642  0.75000000  1
  Ge  Ge26  4  0.00000000  0.30196913  0.75000000  1
  Ge  Ge27  4  0.00000000  0.32277223  0.25000000  1
  Ge  Ge28  4  0.00000000  0.36478391  0.25000000  1
  Ge  Ge29  4  0.00000000  0.38551224  0.75000000  1
  Ge  Ge30  4  0.00000000  0.42793204  0.75000000  1
  Ge  Ge31  4  0.00000000  0.44876046  0.25000000  1
  Ge  Ge32  4  0.00000000  0.48967091  0.25000000  1
