# generated using pymatgen
data_U(MnSi)6
_symmetry_space_group_name_H-M   Immm
_cell_length_a   4.84549834
_cell_length_b   7.98845626
_cell_length_c   25.42855263
_cell_angle_alpha   90.00000000
_cell_angle_beta   90.00000000
_cell_angle_gamma   90.00000000
_symmetry_Int_Tables_number   71
_chemical_formula_structural   U(MnSi)6
_chemical_formula_sum   'U6 Mn36 Si36'
_cell_volume   984.28972688
_cell_formula_units_Z   6
loop_
 _symmetry_equiv_pos_site_id
 _symmetry_equiv_pos_as_xyz
  1  'x, y, z'
  2  '-x, -y, -z'
  3  '-x, -y, z'
  4  'x, y, -z'
  5  'x, -y, -z'
  6  '-x, y, z'
  7  '-x, y, -z'
  8  'x, -y, z'
  9  'x+1/2, y+1/2, z+1/2'
  10  '-x+1/2, -y+1/2, -z+1/2'
  11  '-x+1/2, -y+1/2, z+1/2'
  12  'x+1/2, y+1/2, -z+1/2'
  13  'x+1/2, -y+1/2, -z+1/2'
  14  '-x+1/2, y+1/2, z+1/2'
  15  '-x+1/2, y+1/2, -z+1/2'
  16  'x+1/2, -y+1/2, z+1/2'
loop_
 _atom_site_type_symbol
 _atom_site_label
 _atom_site_symmetry_multiplicity
 _atom_site_fract_x
 _atom_site_fract_y
 _atom_site_fract_z
 _atom_site_occupancy
  U  U0  4  0.00000000  0.00000000  0.32912751  1
  U  U1  2  0.00000000  0.50000000  0.00000000  1
  Mn  Mn2  16  0.24854707  0.24725871  0.08318497  1
  Mn  Mn3  8  0.00000000  0.25521373  0.16692880  1
  Mn  Mn4  8  0.25000000  0.25000000  0.25000000  1
  Mn  Mn5  4  0.00000000  0.25079400  0.50000000  1
  Si  Si6  8  0.00000000  0.35076842  0.33460219  1
  Si  Si7  4  0.00000000  0.00000000  0.11128069  1
  Si  Si8  4  0.00000000  0.00000000  0.21592682  1
  Si  Si9  4  0.00000000  0.00000000  0.44234200  1
  Si  Si10  4  0.00000000  0.14823432  0.00000000  1
  Si  Si11  4  0.00000000  0.50000000  0.11120180  1
  Si  Si12  4  0.00000000  0.50000000  0.23093164  1
  Si  Si13  4  0.00000000  0.50000000  0.44477176  1
