# generated using pymatgen
data_U(TaSn)6
_symmetry_space_group_name_H-M   Cmmm
_cell_length_a   5.79634030
_cell_length_b   50.24905012
_cell_length_c   9.76086321
_cell_angle_alpha   90.00000000
_cell_angle_beta   90.00000000
_cell_angle_gamma   90.00000000
_symmetry_Int_Tables_number   65
_chemical_formula_structural   U(TaSn)6
_chemical_formula_sum   'U10 Ta60 Sn60'
_cell_volume   2842.95481817
_cell_formula_units_Z   10
loop_
 _symmetry_equiv_pos_site_id
 _symmetry_equiv_pos_as_xyz
  1  'x, y, z'
  2  '-x, -y, -z'
  3  '-x, -y, z'
  4  'x, y, -z'
  5  'x, -y, -z'
  6  '-x, y, z'
  7  '-x, y, -z'
  8  'x, -y, z'
  9  'x+1/2, y+1/2, z'
  10  '-x+1/2, -y+1/2, -z'
  11  '-x+1/2, -y+1/2, z'
  12  'x+1/2, y+1/2, -z'
  13  'x+1/2, -y+1/2, -z'
  14  '-x+1/2, y+1/2, z'
  15  '-x+1/2, y+1/2, -z'
  16  'x+1/2, -y+1/2, z'
loop_
 _atom_site_type_symbol
 _atom_site_label
 _atom_site_symmetry_multiplicity
 _atom_site_fract_x
 _atom_site_fract_y
 _atom_site_fract_z
 _atom_site_occupancy
  U  U0  4  0.00000000  0.10059218  0.50000000  1
  U  U1  4  0.00000000  0.30056597  0.00000000  1
  U  U2  2  0.00000000  0.50000000  0.50000000  1
  Ta  Ta3  16  0.24991650  0.44999980  0.25147908  1
  Ta  Ta4  16  0.24999637  0.15000322  0.25000133  1
  Ta  Ta5  8  0.00000000  0.19997830  0.24786158  1
  Ta  Ta6  8  0.00000000  0.39996824  0.25207754  1
  Ta  Ta7  8  0.25000000  0.25000000  0.24848531  1
  Ta  Ta8  4  0.00000000  0.00000000  0.25156085  1
  Sn  Sn9  8  0.00000000  0.09975300  0.18017048  1
  Sn  Sn10  8  0.00000000  0.29974696  0.31984311  1
  Sn  Sn11  4  0.00000000  0.03320384  0.00000000  1
  Sn  Sn12  4  0.00000000  0.03333151  0.50000000  1
  Sn  Sn13  4  0.00000000  0.16604697  0.50000000  1
  Sn  Sn14  4  0.00000000  0.16716768  0.00000000  1
  Sn  Sn15  4  0.00000000  0.23326487  0.50000000  1
  Sn  Sn16  4  0.00000000  0.23326735  0.00000000  1
  Sn  Sn17  4  0.00000000  0.36603803  0.00000000  1
  Sn  Sn18  4  0.00000000  0.36715904  0.50000000  1
  Sn  Sn19  4  0.00000000  0.43323702  0.50000000  1
  Sn  Sn20  4  0.00000000  0.43325755  0.00000000  1
  Sn  Sn21  4  0.00000000  0.50000000  0.18111622  1
