# generated using pymatgen
data_U(GeOs)6
_symmetry_space_group_name_H-M   Cmcm
_cell_length_a   8.10783352
_cell_length_b   75.61326843
_cell_length_c   5.45647035
_cell_angle_alpha   90.00000000
_cell_angle_beta   90.00000000
_cell_angle_gamma   90.00000000
_symmetry_Int_Tables_number   63
_chemical_formula_structural   U(GeOs)6
_chemical_formula_sum   'U16 Ge96 Os96'
_cell_volume   3345.14257853
_cell_formula_units_Z   16
loop_
 _symmetry_equiv_pos_site_id
 _symmetry_equiv_pos_as_xyz
  1  'x, y, z'
  2  '-x, -y, -z'
  3  '-x, -y, z+1/2'
  4  'x, y, -z+1/2'
  5  'x, -y, -z'
  6  '-x, y, z'
  7  '-x, y, -z+1/2'
  8  'x, -y, z+1/2'
  9  'x+1/2, y+1/2, z'
  10  '-x+1/2, -y+1/2, -z'
  11  '-x+1/2, -y+1/2, z+1/2'
  12  'x+1/2, y+1/2, -z+1/2'
  13  'x+1/2, -y+1/2, -z'
  14  '-x+1/2, y+1/2, z'
  15  '-x+1/2, y+1/2, -z+1/2'
  16  'x+1/2, -y+1/2, z+1/2'
loop_
 _atom_site_type_symbol
 _atom_site_label
 _atom_site_symmetry_multiplicity
 _atom_site_fract_x
 _atom_site_fract_y
 _atom_site_fract_z
 _atom_site_occupancy
  U  U0  4  0.00000000  0.09352809  0.25000000  1
  U  U1  4  0.00000000  0.15624440  0.75000000  1
  U  U2  4  0.00000000  0.21877127  0.25000000  1
  U  U3  4  0.00000000  0.46857311  0.25000000  1
  Ge  Ge4  8  0.16084380  0.34377625  0.25000000  1
  Ge  Ge5  8  0.16093670  0.28127284  0.75000000  1
  Ge  Ge6  8  0.16117297  0.40608348  0.75000000  1
  Ge  Ge7  8  0.16169355  0.03118686  0.75000000  1
  Ge  Ge8  4  0.00000000  0.01041635  0.25000000  1
  Ge  Ge9  4  0.00000000  0.05237689  0.25000000  1
  Ge  Ge10  4  0.00000000  0.07312214  0.75000000  1
  Ge  Ge11  4  0.00000000  0.11455459  0.75000000  1
  Ge  Ge12  4  0.00000000  0.13537809  0.25000000  1
  Ge  Ge13  4  0.00000000  0.17709254  0.25000000  1
  Ge  Ge14  4  0.00000000  0.19794162  0.75000000  1
  Ge  Ge15  4  0.00000000  0.23908598  0.75000000  1
  Ge  Ge16  4  0.00000000  0.25982236  0.25000000  1
  Ge  Ge17  4  0.00000000  0.30207297  0.25000000  1
  Ge  Ge18  4  0.00000000  0.32291167  0.75000000  1
  Ge  Ge19  4  0.00000000  0.36455169  0.75000000  1
  Ge  Ge20  4  0.00000000  0.38545049  0.25000000  1
  Ge  Ge21  4  0.00000000  0.42724530  0.25000000  1
  Ge  Ge22  4  0.00000000  0.44799919  0.75000000  1
  Ge  Ge23  4  0.00000000  0.48961360  0.75000000  1
  Os  Os24  16  0.24741185  0.43752804  0.00025564  1
  Os  Os25  16  0.24790383  0.37501908  0.50008371  1
  Os  Os26  16  0.24794970  0.31245964  0.50012474  1
  Os  Os27  8  0.24541542  0.46876905  0.75000000  1
  Os  Os28  8  0.24684650  0.50000000  0.00000000  1
  Os  Os29  8  0.24713076  0.28123830  0.25000000  1
  Os  Os30  8  0.24794165  0.34374193  0.75000000  1
  Os  Os31  8  0.24916690  0.40624714  0.25000000  1
  Os  Os32  8  0.25000000  0.25000000  0.00000000  1
