# generated using pymatgen
data_U(CdSi)6
_symmetry_space_group_name_H-M   Cmmm
_cell_length_a   6.12222398
_cell_length_b   49.54189744
_cell_length_c   8.47289913
_cell_angle_alpha   90.00000000
_cell_angle_beta   90.00000000
_cell_angle_gamma   90.00000000
_symmetry_Int_Tables_number   65
_chemical_formula_structural   U(CdSi)6
_chemical_formula_sum   'U10 Cd60 Si60'
_cell_volume   2569.88616361
_cell_formula_units_Z   10
loop_
 _symmetry_equiv_pos_site_id
 _symmetry_equiv_pos_as_xyz
  1  'x, y, z'
  2  '-x, -y, -z'
  3  '-x, -y, z'
  4  'x, y, -z'
  5  'x, -y, -z'
  6  '-x, y, z'
  7  '-x, y, -z'
  8  'x, -y, z'
  9  'x+1/2, y+1/2, z'
  10  '-x+1/2, -y+1/2, -z'
  11  '-x+1/2, -y+1/2, z'
  12  'x+1/2, y+1/2, -z'
  13  'x+1/2, -y+1/2, -z'
  14  '-x+1/2, y+1/2, z'
  15  '-x+1/2, y+1/2, -z'
  16  'x+1/2, -y+1/2, z'
loop_
 _atom_site_type_symbol
 _atom_site_label
 _atom_site_symmetry_multiplicity
 _atom_site_fract_x
 _atom_site_fract_y
 _atom_site_fract_z
 _atom_site_occupancy
  U  U0  4  0.00000000  0.09879561  0.00000000  1
  U  U1  4  0.00000000  0.29972870  0.50000000  1
  U  U2  2  0.00000000  0.50000000  0.00000000  1
  Cd  Cd3  16  0.23614721  0.14693522  0.25519630  1
  Cd  Cd4  16  0.24342627  0.04968163  0.22221871  1
  Cd  Cd5  8  0.00000000  0.19959134  0.20928488  1
  Cd  Cd6  8  0.00000000  0.40148256  0.29353771  1
  Cd  Cd7  8  0.25000000  0.25000000  0.27788958  1
  Cd  Cd8  4  0.00000000  0.00000000  0.28827930  1
  Si  Si9  8  0.00000000  0.09342102  0.36473275  1
  Si  Si10  8  0.00000000  0.29381892  0.13710486  1
  Si  Si11  4  0.00000000  0.02364290  0.00000000  1
  Si  Si12  4  0.00000000  0.05259307  0.50000000  1
  Si  Si13  4  0.00000000  0.15772096  0.00000000  1
  Si  Si14  4  0.00000000  0.17920845  0.50000000  1
  Si  Si15  4  0.00000000  0.22571735  0.50000000  1
  Si  Si16  4  0.00000000  0.25361706  0.00000000  1
  Si  Si17  4  0.00000000  0.35797163  0.50000000  1
  Si  Si18  4  0.00000000  0.38112821  0.00000000  1
  Si  Si19  4  0.00000000  0.42767037  0.00000000  1
  Si  Si20  4  0.00000000  0.46082066  0.50000000  1
  Si  Si21  4  0.00000000  0.50000000  0.35067229  1
