# generated using pymatgen
data_U(SnRh)6
_symmetry_space_group_name_H-M   Cmcm
_cell_length_a   8.80080804
_cell_length_b   38.97506833
_cell_length_c   5.62462562
_cell_angle_alpha   90.00000000
_cell_angle_beta   90.00000000
_cell_angle_gamma   90.00000000
_symmetry_Int_Tables_number   63
_chemical_formula_structural   U(SnRh)6
_chemical_formula_sum   'U8 Sn48 Rh48'
_cell_volume   1929.31461761
_cell_formula_units_Z   8
loop_
 _symmetry_equiv_pos_site_id
 _symmetry_equiv_pos_as_xyz
  1  'x, y, z'
  2  '-x, -y, -z'
  3  '-x, -y, z+1/2'
  4  'x, y, -z+1/2'
  5  'x, -y, -z'
  6  '-x, y, z'
  7  '-x, y, -z+1/2'
  8  'x, -y, z+1/2'
  9  'x+1/2, y+1/2, z'
  10  '-x+1/2, -y+1/2, -z'
  11  '-x+1/2, -y+1/2, z+1/2'
  12  'x+1/2, y+1/2, -z+1/2'
  13  'x+1/2, -y+1/2, -z'
  14  '-x+1/2, y+1/2, z'
  15  '-x+1/2, y+1/2, -z+1/2'
  16  'x+1/2, -y+1/2, z+1/2'
loop_
 _atom_site_type_symbol
 _atom_site_label
 _atom_site_symmetry_multiplicity
 _atom_site_fract_x
 _atom_site_fract_y
 _atom_site_fract_z
 _atom_site_occupancy
  U  U0  4  0.00000000  0.06476998  0.75000000  1
  U  U1  4  0.00000000  0.19035733  0.25000000  1
  Sn  Sn2  8  0.16388207  0.31285219  0.75000000  1
  Sn  Sn3  8  0.16426346  0.43988550  0.25000000  1
  Sn  Sn4  4  0.00000000  0.02145365  0.25000000  1
  Sn  Sn5  4  0.00000000  0.10573392  0.25000000  1
  Sn  Sn6  4  0.00000000  0.14672737  0.75000000  1
  Sn  Sn7  4  0.00000000  0.23049745  0.75000000  1
  Sn  Sn8  4  0.00000000  0.27314498  0.25000000  1
  Sn  Sn9  4  0.00000000  0.35509569  0.25000000  1
  Sn  Sn10  4  0.00000000  0.39675499  0.75000000  1
  Sn  Sn11  4  0.00000000  0.47797163  0.75000000  1
  Rh  Rh12  16  0.24916959  0.37511969  0.00133738  1
  Rh  Rh13  8  0.24493397  0.18775418  0.75000000  1
  Rh  Rh14  8  0.24566347  0.00000000  0.00000000  1
  Rh  Rh15  8  0.24788008  0.06268401  0.25000000  1
  Rh  Rh16  8  0.25000000  0.25000000  0.00000000  1
