# generated using pymatgen
data_U(CrSn)6
_symmetry_space_group_name_H-M   Cmcm
_cell_length_a   9.31365141
_cell_length_b   73.99469483
_cell_length_c   5.33847355
_cell_angle_alpha   90.00000000
_cell_angle_beta   90.00000000
_cell_angle_gamma   90.00000000
_symmetry_Int_Tables_number   63
_chemical_formula_structural   U(CrSn)6
_chemical_formula_sum   'U16 Cr96 Sn96'
_cell_volume   3679.06667461
_cell_formula_units_Z   16
loop_
 _symmetry_equiv_pos_site_id
 _symmetry_equiv_pos_as_xyz
  1  'x, y, z'
  2  '-x, -y, -z'
  3  '-x, -y, z+1/2'
  4  'x, y, -z+1/2'
  5  'x, -y, -z'
  6  '-x, y, z'
  7  '-x, y, -z+1/2'
  8  'x, -y, z+1/2'
  9  'x+1/2, y+1/2, z'
  10  '-x+1/2, -y+1/2, -z'
  11  '-x+1/2, -y+1/2, z+1/2'
  12  'x+1/2, y+1/2, -z+1/2'
  13  'x+1/2, -y+1/2, -z'
  14  '-x+1/2, y+1/2, z'
  15  '-x+1/2, y+1/2, -z+1/2'
  16  'x+1/2, -y+1/2, z+1/2'
loop_
 _atom_site_type_symbol
 _atom_site_label
 _atom_site_symmetry_multiplicity
 _atom_site_fract_x
 _atom_site_fract_y
 _atom_site_fract_z
 _atom_site_occupancy
  U  U0  4  0.00000000  0.03160925  0.25000000  1
  U  U1  4  0.00000000  0.28107821  0.25000000  1
  U  U2  4  0.00000000  0.34377669  0.75000000  1
  U  U3  4  0.00000000  0.40655945  0.25000000  1
  Cr  Cr4  16  0.24823035  0.18748515  0.50005201  1
  Cr  Cr5  16  0.24842022  0.12501552  0.50000830  1
  Cr  Cr6  16  0.24866802  0.93755996  0.50080180  1
  Cr  Cr7  8  0.24591397  0.03127395  0.75000000  1
  Cr  Cr8  8  0.24810403  0.40623451  0.75000000  1
  Cr  Cr9  8  0.24849894  0.15624189  0.75000000  1
  Cr  Cr10  8  0.24909090  0.28126289  0.75000000  1
  Cr  Cr11  8  0.24944564  0.00000000  0.00000000  1
  Cr  Cr12  8  0.25000000  0.25000000  0.00000000  1
  Sn  Sn13  8  0.15934366  0.84374469  0.75000000  1
  Sn  Sn14  8  0.16008993  0.21877659  0.75000000  1
  Sn  Sn15  8  0.16053226  0.09376777  0.75000000  1
  Sn  Sn16  8  0.16196045  0.46881309  0.75000000  1
  Sn  Sn17  4  0.00000000  0.01043000  0.75000000  1
  Sn  Sn18  4  0.00000000  0.05321094  0.75000000  1
  Sn  Sn19  4  0.00000000  0.07425634  0.25000000  1
  Sn  Sn20  4  0.00000000  0.11490390  0.25000000  1
  Sn  Sn21  4  0.00000000  0.13545476  0.75000000  1
  Sn  Sn22  4  0.00000000  0.17707699  0.75000000  1
  Sn  Sn23  4  0.00000000  0.19772076  0.25000000  1
  Sn  Sn24  4  0.00000000  0.23866591  0.25000000  1
  Sn  Sn25  4  0.00000000  0.25968184  0.75000000  1
  Sn  Sn26  4  0.00000000  0.30207742  0.75000000  1
  Sn  Sn27  4  0.00000000  0.32289531  0.25000000  1
  Sn  Sn28  4  0.00000000  0.36466027  0.25000000  1
  Sn  Sn29  4  0.00000000  0.38547127  0.75000000  1
  Sn  Sn30  4  0.00000000  0.42804149  0.75000000  1
  Sn  Sn31  4  0.00000000  0.44902210  0.25000000  1
  Sn  Sn32  4  0.00000000  0.48981735  0.25000000  1
