# generated using pymatgen
data_U(NiPb)6
_symmetry_space_group_name_H-M   Cmcm
_cell_length_a   9.44032454
_cell_length_b   76.34317435
_cell_length_c   5.51294358
_cell_angle_alpha   90.00000000
_cell_angle_beta   90.00000000
_cell_angle_gamma   90.00000000
_symmetry_Int_Tables_number   63
_chemical_formula_structural   U(NiPb)6
_chemical_formula_sum   'U16 Ni96 Pb96'
_cell_volume   3973.20237484
_cell_formula_units_Z   16
loop_
 _symmetry_equiv_pos_site_id
 _symmetry_equiv_pos_as_xyz
  1  'x, y, z'
  2  '-x, -y, -z'
  3  '-x, -y, z+1/2'
  4  'x, y, -z+1/2'
  5  'x, -y, -z'
  6  '-x, y, z'
  7  '-x, y, -z+1/2'
  8  'x, -y, z+1/2'
  9  'x+1/2, y+1/2, z'
  10  '-x+1/2, -y+1/2, -z'
  11  '-x+1/2, -y+1/2, z+1/2'
  12  'x+1/2, y+1/2, -z+1/2'
  13  'x+1/2, -y+1/2, -z'
  14  '-x+1/2, y+1/2, z'
  15  '-x+1/2, y+1/2, -z+1/2'
  16  'x+1/2, -y+1/2, z+1/2'
loop_
 _atom_site_type_symbol
 _atom_site_label
 _atom_site_symmetry_multiplicity
 _atom_site_fract_x
 _atom_site_fract_y
 _atom_site_fract_z
 _atom_site_occupancy
  U  U0  4  0.00000000  0.03170782  0.75000000  1
  U  U1  4  0.00000000  0.28096835  0.75000000  1
  U  U2  4  0.00000000  0.34381898  0.25000000  1
  U  U3  4  0.00000000  0.40677199  0.75000000  1
  Ni  Ni4  16  0.24373888  0.06210818  0.50350036  1
  Ni  Ni5  16  0.24680870  0.37496991  0.00034890  1
  Ni  Ni6  16  0.24684978  0.31248800  0.50006376  1
  Ni  Ni7  8  0.23426294  0.96867268  0.75000000  1
  Ni  Ni8  8  0.23550863  0.00000000  0.00000000  1
  Ni  Ni9  8  0.24543340  0.40621529  0.25000000  1
  Ni  Ni10  8  0.24563013  0.28125463  0.25000000  1
  Ni  Ni11  8  0.24676052  0.34376617  0.75000000  1
  Ni  Ni12  8  0.25000000  0.25000000  0.00000000  1
  Pb  Pb13  8  0.17646057  0.15629299  0.75000000  1
  Pb  Pb14  8  0.17721213  0.21865428  0.25000000  1
  Pb  Pb15  8  0.17734808  0.09402638  0.25000000  1
  Pb  Pb16  8  0.17776015  0.46903492  0.25000000  1
  Pb  Pb17  4  0.00000000  0.01055655  0.25000000  1
  Pb  Pb18  4  0.00000000  0.05298811  0.25000000  1
  Pb  Pb19  4  0.00000000  0.07383168  0.75000000  1
  Pb  Pb20  4  0.00000000  0.11495706  0.75000000  1
  Pb  Pb21  4  0.00000000  0.13549728  0.25000000  1
  Pb  Pb22  4  0.00000000  0.17710376  0.25000000  1
  Pb  Pb23  4  0.00000000  0.19772888  0.75000000  1
  Pb  Pb24  4  0.00000000  0.23896548  0.75000000  1
  Pb  Pb25  4  0.00000000  0.25980199  0.25000000  1
  Pb  Pb26  4  0.00000000  0.30191627  0.25000000  1
  Pb  Pb27  4  0.00000000  0.32288370  0.75000000  1
  Pb  Pb28  4  0.00000000  0.36473424  0.75000000  1
  Pb  Pb29  4  0.00000000  0.38575041  0.25000000  1
  Pb  Pb30  4  0.00000000  0.42797543  0.25000000  1
  Pb  Pb31  4  0.00000000  0.44872751  0.75000000  1
  Pb  Pb32  4  0.00000000  0.48984112  0.75000000  1
