# generated using pymatgen
data_Zr6USi6
_symmetry_space_group_name_H-M   Cmmm
_cell_length_a   5.86783608
_cell_length_b   50.71597907
_cell_length_c   8.93004138
_cell_angle_alpha   90.00000000
_cell_angle_beta   90.00000000
_cell_angle_gamma   90.00000000
_symmetry_Int_Tables_number   65
_chemical_formula_structural   Zr6USi6
_chemical_formula_sum   'Zr60 U10 Si60'
_cell_volume   2657.51826748
_cell_formula_units_Z   10
loop_
 _symmetry_equiv_pos_site_id
 _symmetry_equiv_pos_as_xyz
  1  'x, y, z'
  2  '-x, -y, -z'
  3  '-x, -y, z'
  4  'x, y, -z'
  5  'x, -y, -z'
  6  '-x, y, z'
  7  '-x, y, -z'
  8  'x, -y, z'
  9  'x+1/2, y+1/2, z'
  10  '-x+1/2, -y+1/2, -z'
  11  '-x+1/2, -y+1/2, z'
  12  'x+1/2, y+1/2, -z'
  13  'x+1/2, -y+1/2, -z'
  14  '-x+1/2, y+1/2, z'
  15  '-x+1/2, y+1/2, -z'
  16  'x+1/2, -y+1/2, z'
loop_
 _atom_site_type_symbol
 _atom_site_label
 _atom_site_symmetry_multiplicity
 _atom_site_fract_x
 _atom_site_fract_y
 _atom_site_fract_z
 _atom_site_occupancy
  Zr  Zr0  16  0.24953086  0.05014155  0.24970296  1
  Zr  Zr1  16  0.24996527  0.15000949  0.24999468  1
  Zr  Zr2  8  0.00000000  0.19996532  0.26357775  1
  Zr  Zr3  8  0.00000000  0.39991430  0.23685354  1
  Zr  Zr4  8  0.25000000  0.25000000  0.24745815  1
  Zr  Zr5  4  0.00000000  0.00000000  0.24913839  1
  U  U6  4  0.00000000  0.09987434  0.50000000  1
  U  U7  4  0.00000000  0.29994545  0.00000000  1
  U  U8  2  0.00000000  0.50000000  0.50000000  1
  Si  Si9  8  0.00000000  0.10028663  0.17559244  1
  Si  Si10  8  0.00000000  0.30025334  0.32409295  1
  Si  Si11  4  0.00000000  0.03299831  0.00000000  1
  Si  Si12  4  0.00000000  0.03309545  0.50000000  1
  Si  Si13  4  0.00000000  0.16323671  0.50000000  1
  Si  Si14  4  0.00000000  0.17056524  0.00000000  1
  Si  Si15  4  0.00000000  0.23055303  0.00000000  1
  Si  Si16  4  0.00000000  0.23579858  0.50000000  1
  Si  Si17  4  0.00000000  0.36320939  0.00000000  1
  Si  Si18  4  0.00000000  0.37048372  0.50000000  1
  Si  Si19  4  0.00000000  0.43085061  0.50000000  1
  Si  Si20  4  0.00000000  0.43520858  0.00000000  1
  Si  Si21  4  0.00000000  0.50000000  0.17770910  1
