# generated using pymatgen
data_U(CdPb)6
_symmetry_space_group_name_H-M   Cmcm
_cell_length_a   10.82263630
_cell_length_b   84.54970265
_cell_length_c   6.01294532
_cell_angle_alpha   90.00000000
_cell_angle_beta   90.00000000
_cell_angle_gamma   90.00000000
_symmetry_Int_Tables_number   63
_chemical_formula_structural   U(CdPb)6
_chemical_formula_sum   'U16 Cd96 Pb96'
_cell_volume   5502.14970654
_cell_formula_units_Z   16
loop_
 _symmetry_equiv_pos_site_id
 _symmetry_equiv_pos_as_xyz
  1  'x, y, z'
  2  '-x, -y, -z'
  3  '-x, -y, z+1/2'
  4  'x, y, -z+1/2'
  5  'x, -y, -z'
  6  '-x, y, z'
  7  '-x, y, -z+1/2'
  8  'x, -y, z+1/2'
  9  'x+1/2, y+1/2, z'
  10  '-x+1/2, -y+1/2, -z'
  11  '-x+1/2, -y+1/2, z+1/2'
  12  'x+1/2, y+1/2, -z+1/2'
  13  'x+1/2, -y+1/2, -z'
  14  '-x+1/2, y+1/2, z'
  15  '-x+1/2, y+1/2, -z+1/2'
  16  'x+1/2, -y+1/2, z+1/2'
loop_
 _atom_site_type_symbol
 _atom_site_label
 _atom_site_symmetry_multiplicity
 _atom_site_fract_x
 _atom_site_fract_y
 _atom_site_fract_z
 _atom_site_occupancy
  U  U0  4  0.00000000  0.09495895  0.25000000  1
  U  U1  4  0.00000000  0.15627581  0.75000000  1
  U  U2  4  0.00000000  0.21816218  0.25000000  1
  U  U3  4  0.00000000  0.46884311  0.25000000  1
  Cd  Cd4  16  0.24105342  0.12497926  0.00029500  1
  Cd  Cd5  16  0.24132286  0.18752487  0.00023457  1
  Cd  Cd6  16  0.24482936  0.43808695  0.00326525  1
  Cd  Cd7  8  0.23795885  0.53115414  0.25000000  1
  Cd  Cd8  8  0.23797191  0.50000000  0.00000000  1
  Cd  Cd9  8  0.24025123  0.15625949  0.25000000  1
  Cd  Cd10  8  0.24035211  0.09376631  0.75000000  1
  Cd  Cd11  8  0.24221026  0.21871580  0.75000000  1
  Cd  Cd12  8  0.25000000  0.25000000  0.00000000  1
  Pb  Pb13  8  0.18955009  0.03080243  0.75000000  1
  Pb  Pb14  8  0.19084221  0.71860307  0.25000000  1
  Pb  Pb15  8  0.19207637  0.65624677  0.75000000  1
  Pb  Pb16  8  0.19246763  0.59395203  0.25000000  1
  Pb  Pb17  4  0.00000000  0.01026086  0.25000000  1
  Pb  Pb18  4  0.00000000  0.05470756  0.25000000  1
  Pb  Pb19  4  0.00000000  0.07484637  0.75000000  1
  Pb  Pb20  4  0.00000000  0.11494750  0.75000000  1
  Pb  Pb21  4  0.00000000  0.13570644  0.25000000  1
  Pb  Pb22  4  0.00000000  0.17688862  0.25000000  1
  Pb  Pb23  4  0.00000000  0.19746894  0.75000000  1
  Pb  Pb24  4  0.00000000  0.23743857  0.75000000  1
  Pb  Pb25  4  0.00000000  0.25796339  0.25000000  1
  Pb  Pb26  4  0.00000000  0.30205253  0.25000000  1
  Pb  Pb27  4  0.00000000  0.32284303  0.75000000  1
  Pb  Pb28  4  0.00000000  0.36465618  0.75000000  1
  Pb  Pb29  4  0.00000000  0.38534591  0.25000000  1
  Pb  Pb30  4  0.00000000  0.42890954  0.25000000  1
  Pb  Pb31  4  0.00000000  0.44949563  0.75000000  1
  Pb  Pb32  4  0.00000000  0.48974335  0.75000000  1
