# generated using pymatgen
data_U(CoSi)6
_symmetry_space_group_name_H-M   Cmmm
_cell_length_a   4.91896820
_cell_length_b   42.66292125
_cell_length_c   7.52455423
_cell_angle_alpha   90.00000000
_cell_angle_beta   90.00000000
_cell_angle_gamma   90.00000000
_symmetry_Int_Tables_number   65
_chemical_formula_structural   U(CoSi)6
_chemical_formula_sum   'U10 Co60 Si60'
_cell_volume   1579.08453545
_cell_formula_units_Z   10
loop_
 _symmetry_equiv_pos_site_id
 _symmetry_equiv_pos_as_xyz
  1  'x, y, z'
  2  '-x, -y, -z'
  3  '-x, -y, z'
  4  'x, y, -z'
  5  'x, -y, -z'
  6  '-x, y, z'
  7  '-x, y, -z'
  8  'x, -y, z'
  9  'x+1/2, y+1/2, z'
  10  '-x+1/2, -y+1/2, -z'
  11  '-x+1/2, -y+1/2, z'
  12  'x+1/2, y+1/2, -z'
  13  'x+1/2, -y+1/2, -z'
  14  '-x+1/2, y+1/2, z'
  15  '-x+1/2, y+1/2, -z'
  16  'x+1/2, -y+1/2, z'
loop_
 _atom_site_type_symbol
 _atom_site_label
 _atom_site_symmetry_multiplicity
 _atom_site_fract_x
 _atom_site_fract_y
 _atom_site_fract_z
 _atom_site_occupancy
  U  U0  4  0.00000000  0.19876259  0.50000000  1
  U  U1  4  0.00000000  0.39876644  0.00000000  1
  U  U2  2  0.00000000  0.00000000  0.00000000  1
  Co  Co3  16  0.24992134  0.05000605  0.25362121  1
  Co  Co4  16  0.24995200  0.34998910  0.25000199  1
  Co  Co5  8  0.00000000  0.10000285  0.24817873  1
  Co  Co6  8  0.00000000  0.29994645  0.25224232  1
  Co  Co7  8  0.25000000  0.25000000  0.24623318  1
  Co  Co8  4  0.00000000  0.50000000  0.25235905  1
  Si  Si9  8  0.00000000  0.20025180  0.15105533  1
  Si  Si10  8  0.00000000  0.40025240  0.34899086  1
  Si  Si11  4  0.00000000  0.00000000  0.34994480  1
  Si  Si12  4  0.00000000  0.06654814  0.50000000  1
  Si  Si13  4  0.00000000  0.06679982  0.00000000  1
  Si  Si14  4  0.00000000  0.13079695  0.50000000  1
  Si  Si15  4  0.00000000  0.13625141  0.00000000  1
  Si  Si16  4  0.00000000  0.26632066  0.50000000  1
  Si  Si17  4  0.00000000  0.26670294  0.00000000  1
  Si  Si18  4  0.00000000  0.33075410  0.00000000  1
  Si  Si19  4  0.00000000  0.33621243  0.50000000  1
  Si  Si20  4  0.00000000  0.46614238  0.00000000  1
  Si  Si21  4  0.00000000  0.46689882  0.50000000  1
