# generated using pymatgen
data_U(SnW)6
_symmetry_space_group_name_H-M   Immm
_cell_length_a   5.59666261
_cell_length_b   9.65494835
_cell_length_c   29.10844013
_cell_angle_alpha   90.00000000
_cell_angle_beta   90.00000000
_cell_angle_gamma   90.00000000
_symmetry_Int_Tables_number   71
_chemical_formula_structural   U(SnW)6
_chemical_formula_sum   'U6 Sn36 W36'
_cell_volume   1572.88877814
_cell_formula_units_Z   6
loop_
 _symmetry_equiv_pos_site_id
 _symmetry_equiv_pos_as_xyz
  1  'x, y, z'
  2  '-x, -y, -z'
  3  '-x, -y, z'
  4  'x, y, -z'
  5  'x, -y, -z'
  6  '-x, y, z'
  7  '-x, y, -z'
  8  'x, -y, z'
  9  'x+1/2, y+1/2, z+1/2'
  10  '-x+1/2, -y+1/2, -z+1/2'
  11  '-x+1/2, -y+1/2, z+1/2'
  12  'x+1/2, y+1/2, -z+1/2'
  13  'x+1/2, -y+1/2, -z+1/2'
  14  '-x+1/2, y+1/2, z+1/2'
  15  '-x+1/2, y+1/2, -z+1/2'
  16  'x+1/2, -y+1/2, z+1/2'
loop_
 _atom_site_type_symbol
 _atom_site_label
 _atom_site_symmetry_multiplicity
 _atom_site_fract_x
 _atom_site_fract_y
 _atom_site_fract_z
 _atom_site_occupancy
  U  U0  4  0.00000000  0.00000000  0.16661397  1
  U  U1  2  0.00000000  0.50000000  0.50000000  1
  Sn  Sn2  8  0.00000000  0.31990466  0.83323965  1
  Sn  Sn3  4  0.00000000  0.00000000  0.05544155  1
  Sn  Sn4  4  0.00000000  0.00000000  0.27597747  1
  Sn  Sn5  4  0.00000000  0.00000000  0.38900956  1
  Sn  Sn6  4  0.00000000  0.18103232  0.50000000  1
  Sn  Sn7  4  0.00000000  0.50000000  0.05586691  1
  Sn  Sn8  4  0.00000000  0.50000000  0.27970905  1
  Sn  Sn9  4  0.00000000  0.50000000  0.38887763  1
  W  W10  16  0.24967768  0.24912200  0.08333238  1
  W  W11  8  0.00000000  0.25048782  0.33363156  1
  W  W12  8  0.25000000  0.25000000  0.25000000  1
  W  W13  4  0.00000000  0.24973207  0.00000000  1
