# generated using pymatgen
data_U(NbPb)6
_symmetry_space_group_name_H-M   Cmmm
_cell_length_a   5.80494116
_cell_length_b   50.42900684
_cell_length_c   10.14819414
_cell_angle_alpha   90.00000000
_cell_angle_beta   90.00000000
_cell_angle_gamma   90.00000000
_symmetry_Int_Tables_number   65
_chemical_formula_structural   U(NbPb)6
_chemical_formula_sum   'U10 Nb60 Pb60'
_cell_volume   2970.75614393
_cell_formula_units_Z   10
loop_
 _symmetry_equiv_pos_site_id
 _symmetry_equiv_pos_as_xyz
  1  'x, y, z'
  2  '-x, -y, -z'
  3  '-x, -y, z'
  4  'x, y, -z'
  5  'x, -y, -z'
  6  '-x, y, z'
  7  '-x, y, -z'
  8  'x, -y, z'
  9  'x+1/2, y+1/2, z'
  10  '-x+1/2, -y+1/2, -z'
  11  '-x+1/2, -y+1/2, z'
  12  'x+1/2, y+1/2, -z'
  13  'x+1/2, -y+1/2, -z'
  14  '-x+1/2, y+1/2, z'
  15  '-x+1/2, y+1/2, -z'
  16  'x+1/2, -y+1/2, z'
loop_
 _atom_site_type_symbol
 _atom_site_label
 _atom_site_symmetry_multiplicity
 _atom_site_fract_x
 _atom_site_fract_y
 _atom_site_fract_z
 _atom_site_occupancy
  U  U0  4  0.00000000  0.10030108  0.00000000  1
  U  U1  4  0.00000000  0.30027872  0.50000000  1
  U  U2  2  0.00000000  0.50000000  0.00000000  1
  Nb  Nb3  16  0.24982599  0.45001619  0.24386352  1
  Nb  Nb4  16  0.24999685  0.15000009  0.25000198  1
  Nb  Nb5  8  0.00000000  0.19993780  0.25636740  1
  Nb  Nb6  8  0.00000000  0.39993457  0.24366138  1
  Nb  Nb7  8  0.25000000  0.25000000  0.25611627  1
  Nb  Nb8  4  0.00000000  0.00000000  0.24355977  1
  Pb  Pb9  8  0.00000000  0.09983496  0.32962814  1
  Pb  Pb10  8  0.00000000  0.29984079  0.17036163  1
  Pb  Pb11  4  0.00000000  0.03314739  0.50000000  1
  Pb  Pb12  4  0.00000000  0.03328761  0.00000000  1
  Pb  Pb13  4  0.00000000  0.16668673  0.00000000  1
  Pb  Pb14  4  0.00000000  0.16679219  0.50000000  1
  Pb  Pb15  4  0.00000000  0.23319486  0.50000000  1
  Pb  Pb16  4  0.00000000  0.23323726  0.00000000  1
  Pb  Pb17  4  0.00000000  0.36668451  0.50000000  1
  Pb  Pb18  4  0.00000000  0.36678418  0.00000000  1
  Pb  Pb19  4  0.00000000  0.43315436  0.00000000  1
  Pb  Pb20  4  0.00000000  0.43323844  0.50000000  1
  Pb  Pb21  4  0.00000000  0.50000000  0.32964628  1
