# generated using pymatgen
data_U(IrPb)6
_symmetry_space_group_name_H-M   Cmcm
_cell_length_a   9.63484173
_cell_length_b   19.65521843
_cell_length_c   5.61940088
_cell_angle_alpha   90.00000000
_cell_angle_beta   90.00000000
_cell_angle_gamma   90.00000000
_symmetry_Int_Tables_number   63
_chemical_formula_structural   U(IrPb)6
_chemical_formula_sum   'U4 Ir24 Pb24'
_cell_volume   1064.17358473
_cell_formula_units_Z   4
loop_
 _symmetry_equiv_pos_site_id
 _symmetry_equiv_pos_as_xyz
  1  'x, y, z'
  2  '-x, -y, -z'
  3  '-x, -y, z+1/2'
  4  'x, y, -z+1/2'
  5  'x, -y, -z'
  6  '-x, y, z'
  7  '-x, y, -z+1/2'
  8  'x, -y, z+1/2'
  9  'x+1/2, y+1/2, z'
  10  '-x+1/2, -y+1/2, -z'
  11  '-x+1/2, -y+1/2, z+1/2'
  12  'x+1/2, y+1/2, -z+1/2'
  13  'x+1/2, -y+1/2, -z'
  14  '-x+1/2, y+1/2, z'
  15  '-x+1/2, y+1/2, -z+1/2'
  16  'x+1/2, -y+1/2, z+1/2'
loop_
 _atom_site_type_symbol
 _atom_site_label
 _atom_site_symmetry_multiplicity
 _atom_site_fract_x
 _atom_site_fract_y
 _atom_site_fract_z
 _atom_site_occupancy
  U  U0  4  0.00000000  0.12453277  0.25000000  1
  Ir  Ir1  8  0.23345913  0.12543218  0.75000000  1
  Ir  Ir2  8  0.23620009  0.00000000  0.00000000  1
  Ir  Ir3  8  0.25000000  0.25000000  0.00000000  1
  Pb  Pb4  8  0.17628266  0.37583206  0.75000000  1
  Pb  Pb5  4  0.00000000  0.04222462  0.75000000  1
  Pb  Pb6  4  0.00000000  0.21140588  0.75000000  1
  Pb  Pb7  4  0.00000000  0.29324039  0.25000000  1
  Pb  Pb8  4  0.00000000  0.45901984  0.25000000  1
