# generated using pymatgen
data_U(IrPb)6
_symmetry_space_group_name_H-M   Cmmm
_cell_length_a   5.62630966
_cell_length_b   49.05695297
_cell_length_c   9.62956897
_cell_angle_alpha   90.00000000
_cell_angle_beta   90.00000000
_cell_angle_gamma   90.00000000
_symmetry_Int_Tables_number   65
_chemical_formula_structural   U(IrPb)6
_chemical_formula_sum   'U10 Ir60 Pb60'
_cell_volume   2657.85356090
_cell_formula_units_Z   10
loop_
 _symmetry_equiv_pos_site_id
 _symmetry_equiv_pos_as_xyz
  1  'x, y, z'
  2  '-x, -y, -z'
  3  '-x, -y, z'
  4  'x, y, -z'
  5  'x, -y, -z'
  6  '-x, y, z'
  7  '-x, y, -z'
  8  'x, -y, z'
  9  'x+1/2, y+1/2, z'
  10  '-x+1/2, -y+1/2, -z'
  11  '-x+1/2, -y+1/2, z'
  12  'x+1/2, y+1/2, -z'
  13  'x+1/2, -y+1/2, -z'
  14  '-x+1/2, y+1/2, z'
  15  '-x+1/2, y+1/2, -z'
  16  'x+1/2, -y+1/2, z'
loop_
 _atom_site_type_symbol
 _atom_site_label
 _atom_site_symmetry_multiplicity
 _atom_site_fract_x
 _atom_site_fract_y
 _atom_site_fract_z
 _atom_site_occupancy
  U  U0  4  0.00000000  0.09994445  0.00000000  1
  U  U1  4  0.00000000  0.29995256  0.50000000  1
  U  U2  2  0.00000000  0.50000000  0.00000000  1
  Ir  Ir3  16  0.24992492  0.44998370  0.23738917  1
  Ir  Ir4  16  0.24999035  0.64999800  0.25000741  1
  Ir  Ir5  8  0.00000000  0.19982716  0.26597513  1
  Ir  Ir6  8  0.00000000  0.39985033  0.23396222  1
  Ir  Ir7  8  0.25000000  0.25000000  0.26299495  1
  Ir  Ir8  4  0.00000000  0.00000000  0.23706384  1
  Pb  Pb9  8  0.00000000  0.09960301  0.32310439  1
  Pb  Pb10  8  0.00000000  0.29964139  0.17692875  1
  Pb  Pb11  4  0.00000000  0.03323520  0.50000000  1
  Pb  Pb12  4  0.00000000  0.03329785  0.00000000  1
  Pb  Pb13  4  0.00000000  0.16545000  0.50000000  1
  Pb  Pb14  4  0.00000000  0.16736513  0.00000000  1
  Pb  Pb15  4  0.00000000  0.23317285  0.50000000  1
  Pb  Pb16  4  0.00000000  0.23359257  0.00000000  1
  Pb  Pb17  4  0.00000000  0.36546096  0.00000000  1
  Pb  Pb18  4  0.00000000  0.36736635  0.50000000  1
  Pb  Pb19  4  0.00000000  0.43322498  0.00000000  1
  Pb  Pb20  4  0.00000000  0.43354186  0.50000000  1
  Pb  Pb21  4  0.00000000  0.50000000  0.32410719  1
