# generated using pymatgen
data_U(SiNi)6
_symmetry_space_group_name_H-M   Cmcm
_cell_length_a   7.74643438
_cell_length_b   34.28285769
_cell_length_c   4.89691586
_cell_angle_alpha   90.00000000
_cell_angle_beta   90.00000000
_cell_angle_gamma   90.00000000
_symmetry_Int_Tables_number   63
_chemical_formula_structural   U(SiNi)6
_chemical_formula_sum   'U8 Si48 Ni48'
_cell_volume   1300.47349127
_cell_formula_units_Z   8
loop_
 _symmetry_equiv_pos_site_id
 _symmetry_equiv_pos_as_xyz
  1  'x, y, z'
  2  '-x, -y, -z'
  3  '-x, -y, z+1/2'
  4  'x, y, -z+1/2'
  5  'x, -y, -z'
  6  '-x, y, z'
  7  '-x, y, -z+1/2'
  8  'x, -y, z+1/2'
  9  'x+1/2, y+1/2, z'
  10  '-x+1/2, -y+1/2, -z'
  11  '-x+1/2, -y+1/2, z+1/2'
  12  'x+1/2, y+1/2, -z+1/2'
  13  'x+1/2, -y+1/2, -z'
  14  '-x+1/2, y+1/2, z'
  15  '-x+1/2, y+1/2, -z+1/2'
  16  'x+1/2, -y+1/2, z+1/2'
loop_
 _atom_site_type_symbol
 _atom_site_label
 _atom_site_symmetry_multiplicity
 _atom_site_fract_x
 _atom_site_fract_y
 _atom_site_fract_z
 _atom_site_occupancy
  U  U0  4  0.00000000  0.06399837  0.75000000  1
  U  U1  4  0.00000000  0.18935187  0.25000000  1
  Si  Si2  8  0.14982072  0.43872502  0.25000000  1
  Si  Si3  8  0.15122365  0.31301392  0.75000000  1
  Si  Si4  4  0.00000000  0.01998714  0.25000000  1
  Si  Si5  4  0.00000000  0.10618002  0.25000000  1
  Si  Si6  4  0.00000000  0.14620794  0.75000000  1
  Si  Si7  4  0.00000000  0.23638795  0.75000000  1
  Si  Si8  4  0.00000000  0.27579826  0.25000000  1
  Si  Si9  4  0.00000000  0.35490662  0.25000000  1
  Si  Si10  4  0.00000000  0.39725945  0.75000000  1
  Si  Si11  4  0.00000000  0.47831611  0.75000000  1
  Ni  Ni12  16  0.24051280  0.37492135  0.00032814  1
  Ni  Ni13  8  0.24218981  0.50000000  0.00000000  1
  Ni  Ni14  8  0.24404808  0.43743729  0.75000000  1
  Ni  Ni15  8  0.24810233  0.31228200  0.25000000  1
  Ni  Ni16  8  0.25000000  0.25000000  0.00000000  1
