# generated using pymatgen
data_U(IrPb)6
_symmetry_space_group_name_H-M   Cmcm
_cell_length_a   9.58052796
_cell_length_b   78.57407761
_cell_length_c   5.64511603
_cell_angle_alpha   90.00000000
_cell_angle_beta   90.00000000
_cell_angle_gamma   90.00000000
_symmetry_Int_Tables_number   63
_chemical_formula_structural   U(IrPb)6
_chemical_formula_sum   'U16 Ir96 Pb96'
_cell_volume   4249.53692151
_cell_formula_units_Z   16
loop_
 _symmetry_equiv_pos_site_id
 _symmetry_equiv_pos_as_xyz
  1  'x, y, z'
  2  '-x, -y, -z'
  3  '-x, -y, z+1/2'
  4  'x, y, -z+1/2'
  5  'x, -y, -z'
  6  '-x, y, z'
  7  '-x, y, -z+1/2'
  8  'x, -y, z+1/2'
  9  'x+1/2, y+1/2, z'
  10  '-x+1/2, -y+1/2, -z'
  11  '-x+1/2, -y+1/2, z+1/2'
  12  'x+1/2, y+1/2, -z+1/2'
  13  'x+1/2, -y+1/2, -z'
  14  '-x+1/2, y+1/2, z'
  15  '-x+1/2, y+1/2, -z+1/2'
  16  'x+1/2, -y+1/2, z+1/2'
loop_
 _atom_site_type_symbol
 _atom_site_label
 _atom_site_symmetry_multiplicity
 _atom_site_fract_x
 _atom_site_fract_y
 _atom_site_fract_z
 _atom_site_occupancy
  U  U0  4  0.00000000  0.09408308  0.75000000  1
  U  U1  4  0.00000000  0.15620226  0.25000000  1
  U  U2  4  0.00000000  0.21868717  0.75000000  1
  U  U3  4  0.00000000  0.46848021  0.75000000  1
  Ir  Ir4  16  0.24286277  0.12495387  0.50017619  1
  Ir  Ir5  16  0.24340277  0.18752846  0.50010640  1
  Ir  Ir6  16  0.24467710  0.43787589  0.50273062  1
  Ir  Ir7  8  0.23412111  0.46869777  0.25000000  1
  Ir  Ir8  8  0.23663829  0.50000000  0.00000000  1
  Ir  Ir9  8  0.24101838  0.09368628  0.25000000  1
  Ir  Ir10  8  0.24199436  0.21876840  0.25000000  1
  Ir  Ir11  8  0.24312282  0.15625127  0.75000000  1
  Ir  Ir12  8  0.25000000  0.25000000  0.00000000  1
  Pb  Pb13  8  0.17514780  0.34374196  0.75000000  1
  Pb  Pb14  8  0.17522733  0.03103606  0.25000000  1
  Pb  Pb15  8  0.17552745  0.28126061  0.25000000  1
  Pb  Pb16  8  0.17581235  0.40616560  0.25000000  1
  Pb  Pb17  4  0.00000000  0.01027762  0.75000000  1
  Pb  Pb18  4  0.00000000  0.05191756  0.75000000  1
  Pb  Pb19  4  0.00000000  0.07258199  0.25000000  1
  Pb  Pb20  4  0.00000000  0.11452666  0.25000000  1
  Pb  Pb21  4  0.00000000  0.13549044  0.75000000  1
  Pb  Pb22  4  0.00000000  0.17708238  0.75000000  1
  Pb  Pb23  4  0.00000000  0.19787124  0.25000000  1
  Pb  Pb24  4  0.00000000  0.23964582  0.25000000  1
  Pb  Pb25  4  0.00000000  0.26046664  0.75000000  1
  Pb  Pb26  4  0.00000000  0.30205460  0.75000000  1
  Pb  Pb27  4  0.00000000  0.32290571  0.25000000  1
  Pb  Pb28  4  0.00000000  0.36455322  0.25000000  1
  Pb  Pb29  4  0.00000000  0.38528912  0.75000000  1
  Pb  Pb30  4  0.00000000  0.42651504  0.75000000  1
  Pb  Pb31  4  0.00000000  0.44729427  0.25000000  1
  Pb  Pb32  4  0.00000000  0.48954815  0.25000000  1
