# generated using pymatgen
data_U(TiSi)6
_symmetry_space_group_name_H-M   Cmmm
_cell_length_a   5.42061587
_cell_length_b   46.92100234
_cell_length_c   8.63671230
_cell_angle_alpha   90.00000000
_cell_angle_beta   90.00000000
_cell_angle_gamma   90.00000000
_symmetry_Int_Tables_number   65
_chemical_formula_structural   U(TiSi)6
_chemical_formula_sum   'U10 Ti60 Si60'
_cell_volume   2196.66770936
_cell_formula_units_Z   10
loop_
 _symmetry_equiv_pos_site_id
 _symmetry_equiv_pos_as_xyz
  1  'x, y, z'
  2  '-x, -y, -z'
  3  '-x, -y, z'
  4  'x, y, -z'
  5  'x, -y, -z'
  6  '-x, y, z'
  7  '-x, y, -z'
  8  'x, -y, z'
  9  'x+1/2, y+1/2, z'
  10  '-x+1/2, -y+1/2, -z'
  11  '-x+1/2, -y+1/2, z'
  12  'x+1/2, y+1/2, -z'
  13  'x+1/2, -y+1/2, -z'
  14  '-x+1/2, y+1/2, z'
  15  '-x+1/2, y+1/2, -z'
  16  'x+1/2, -y+1/2, z'
loop_
 _atom_site_type_symbol
 _atom_site_label
 _atom_site_symmetry_multiplicity
 _atom_site_fract_x
 _atom_site_fract_y
 _atom_site_fract_z
 _atom_site_occupancy
  U  U0  4  0.00000000  0.09955377  0.00000000  1
  U  U1  4  0.00000000  0.29951392  0.50000000  1
  U  U2  2  0.00000000  0.50000000  0.00000000  1
  Ti  Ti3  16  0.24970658  0.04998178  0.25485511  1
  Ti  Ti4  16  0.24999834  0.35000058  0.24999921  1
  Ti  Ti5  8  0.00000000  0.20004656  0.24145754  1
  Ti  Ti6  8  0.00000000  0.40005023  0.25855244  1
  Ti  Ti7  8  0.25000000  0.25000000  0.24523804  1
  Ti  Ti8  4  0.00000000  0.00000000  0.25421134  1
  Si  Si9  8  0.00000000  0.09997420  0.32736377  1
  Si  Si10  8  0.00000000  0.29995745  0.17262348  1
  Si  Si11  4  0.00000000  0.03314206  0.50000000  1
  Si  Si12  4  0.00000000  0.03318672  0.00000000  1
  Si  Si13  4  0.00000000  0.16446195  0.00000000  1
  Si  Si14  4  0.00000000  0.16970481  0.50000000  1
  Si  Si15  4  0.00000000  0.23238538  0.50000000  1
  Si  Si16  4  0.00000000  0.23361086  0.00000000  1
  Si  Si17  4  0.00000000  0.36446803  0.50000000  1
  Si  Si18  4  0.00000000  0.36970319  0.00000000  1
  Si  Si19  4  0.00000000  0.43238985  0.00000000  1
  Si  Si20  4  0.00000000  0.43349126  0.50000000  1
  Si  Si21  4  0.00000000  0.50000000  0.32709138  1
