# generated using pymatgen
data_U(AgGe)6
_symmetry_space_group_name_H-M   Cmcm
_cell_length_a   8.82026720
_cell_length_b   40.01210038
_cell_length_c   5.74725651
_cell_angle_alpha   90.00000000
_cell_angle_beta   90.00000000
_cell_angle_gamma   90.00000000
_symmetry_Int_Tables_number   63
_chemical_formula_structural   U(AgGe)6
_chemical_formula_sum   'U8 Ag48 Ge48'
_cell_volume   2028.30692102
_cell_formula_units_Z   8
loop_
 _symmetry_equiv_pos_site_id
 _symmetry_equiv_pos_as_xyz
  1  'x, y, z'
  2  '-x, -y, -z'
  3  '-x, -y, z+1/2'
  4  'x, y, -z+1/2'
  5  'x, -y, -z'
  6  '-x, y, z'
  7  '-x, y, -z+1/2'
  8  'x, -y, z+1/2'
  9  'x+1/2, y+1/2, z'
  10  '-x+1/2, -y+1/2, -z'
  11  '-x+1/2, -y+1/2, z+1/2'
  12  'x+1/2, y+1/2, -z+1/2'
  13  'x+1/2, -y+1/2, -z'
  14  '-x+1/2, y+1/2, z'
  15  '-x+1/2, y+1/2, -z+1/2'
  16  'x+1/2, -y+1/2, z+1/2'
loop_
 _atom_site_type_symbol
 _atom_site_label
 _atom_site_symmetry_multiplicity
 _atom_site_fract_x
 _atom_site_fract_y
 _atom_site_fract_z
 _atom_site_occupancy
  U  U0  4  0.00000000  0.31111005  0.75000000  1
  U  U1  4  0.00000000  0.43724883  0.25000000  1
  Ag  Ag2  16  0.24465175  0.12573564  0.00100461  1
  Ag  Ag3  8  0.23889545  0.43694903  0.75000000  1
  Ag  Ag4  8  0.24332270  0.31231809  0.25000000  1
  Ag  Ag5  8  0.24820001  0.00000000  0.00000000  1
  Ag  Ag6  8  0.25000000  0.25000000  0.00000000  1
  Ge  Ge7  8  0.13868444  0.18645142  0.25000000  1
  Ge  Ge8  8  0.13909193  0.94217390  0.25000000  1
  Ge  Ge9  4  0.00000000  0.02962342  0.25000000  1
  Ge  Ge10  4  0.00000000  0.09739439  0.25000000  1
  Ge  Ge11  4  0.00000000  0.15235703  0.75000000  1
  Ge  Ge12  4  0.00000000  0.22757958  0.75000000  1
  Ge  Ge13  4  0.00000000  0.27143603  0.25000000  1
  Ge  Ge14  4  0.00000000  0.35494380  0.25000000  1
  Ge  Ge15  4  0.00000000  0.39285206  0.75000000  1
  Ge  Ge16  4  0.00000000  0.48003623  0.75000000  1
