# generated using pymatgen
data_U(NbPb)6
_symmetry_space_group_name_H-M   Cmcm
_cell_length_a   10.16733859
_cell_length_b   40.35881614
_cell_length_c   5.80103486
_cell_angle_alpha   90.00000000
_cell_angle_beta   90.00000000
_cell_angle_gamma   90.00000000
_symmetry_Int_Tables_number   63
_chemical_formula_structural   U(NbPb)6
_chemical_formula_sum   'U8 Nb48 Pb48'
_cell_volume   2380.40678941
_cell_formula_units_Z   8
loop_
 _symmetry_equiv_pos_site_id
 _symmetry_equiv_pos_as_xyz
  1  'x, y, z'
  2  '-x, -y, -z'
  3  '-x, -y, z+1/2'
  4  'x, y, -z+1/2'
  5  'x, -y, -z'
  6  '-x, y, z'
  7  '-x, y, -z+1/2'
  8  'x, -y, z+1/2'
  9  'x+1/2, y+1/2, z'
  10  '-x+1/2, -y+1/2, -z'
  11  '-x+1/2, -y+1/2, z+1/2'
  12  'x+1/2, y+1/2, -z+1/2'
  13  'x+1/2, -y+1/2, -z'
  14  '-x+1/2, y+1/2, z'
  15  '-x+1/2, y+1/2, -z+1/2'
  16  'x+1/2, -y+1/2, z+1/2'
loop_
 _atom_site_type_symbol
 _atom_site_label
 _atom_site_symmetry_multiplicity
 _atom_site_fract_x
 _atom_site_fract_y
 _atom_site_fract_z
 _atom_site_occupancy
  U  U0  4  0.00000000  0.06409510  0.25000000  1
  U  U1  4  0.00000000  0.19070927  0.75000000  1
  Nb  Nb2  16  0.24325614  0.12452382  0.00243218  1
  Nb  Nb3  8  0.24089697  0.06262065  0.75000000  1
  Nb  Nb4  8  0.24130768  0.18771924  0.25000000  1
  Nb  Nb5  8  0.24188960  0.00000000  0.00000000  1
  Nb  Nb6  8  0.25000000  0.25000000  0.00000000  1
  Pb  Pb7  8  0.17224120  0.31315231  0.25000000  1
  Pb  Pb8  8  0.17271517  0.43807869  0.75000000  1
  Pb  Pb9  4  0.00000000  0.02107040  0.75000000  1
  Pb  Pb10  4  0.00000000  0.10528946  0.75000000  1
  Pb  Pb11  4  0.00000000  0.14683530  0.25000000  1
  Pb  Pb12  4  0.00000000  0.23033076  0.25000000  1
  Pb  Pb13  4  0.00000000  0.27267526  0.75000000  1
  Pb  Pb14  4  0.00000000  0.35481395  0.75000000  1
  Pb  Pb15  4  0.00000000  0.39687492  0.25000000  1
  Pb  Pb16  4  0.00000000  0.47888506  0.25000000  1
