# generated using pymatgen
data_U(GeW)6
_symmetry_space_group_name_H-M   Cmmm
_cell_length_a   5.40273613
_cell_length_b   46.88725295
_cell_length_c   8.99224577
_cell_angle_alpha   90.00000000
_cell_angle_beta   90.00000000
_cell_angle_gamma   90.00000000
_symmetry_Int_Tables_number   65
_chemical_formula_structural   U(GeW)6
_chemical_formula_sum   'U10 Ge60 W60'
_cell_volume   2277.91080208
_cell_formula_units_Z   10
loop_
 _symmetry_equiv_pos_site_id
 _symmetry_equiv_pos_as_xyz
  1  'x, y, z'
  2  '-x, -y, -z'
  3  '-x, -y, z'
  4  'x, y, -z'
  5  'x, -y, -z'
  6  '-x, y, z'
  7  '-x, y, -z'
  8  'x, -y, z'
  9  'x+1/2, y+1/2, z'
  10  '-x+1/2, -y+1/2, -z'
  11  '-x+1/2, -y+1/2, z'
  12  'x+1/2, y+1/2, -z'
  13  'x+1/2, -y+1/2, -z'
  14  '-x+1/2, y+1/2, z'
  15  '-x+1/2, y+1/2, -z'
  16  'x+1/2, -y+1/2, z'
loop_
 _atom_site_type_symbol
 _atom_site_label
 _atom_site_symmetry_multiplicity
 _atom_site_fract_x
 _atom_site_fract_y
 _atom_site_fract_z
 _atom_site_occupancy
  U  U0  4  0.00000000  0.20026837  0.50000000  1
  U  U1  4  0.00000000  0.40026870  0.00000000  1
  U  U2  2  0.00000000  0.00000000  0.00000000  1
  Ge  Ge3  8  0.00000000  0.19989820  0.17512979  1
  Ge  Ge4  8  0.00000000  0.39988231  0.32486434  1
  Ge  Ge5  4  0.00000000  0.00000000  0.32378671  1
  Ge  Ge6  4  0.00000000  0.06663169  0.00000000  1
  Ge  Ge7  4  0.00000000  0.06692642  0.50000000  1
  Ge  Ge8  4  0.00000000  0.13138189  0.00000000  1
  Ge  Ge9  4  0.00000000  0.13516540  0.50000000  1
  Ge  Ge10  4  0.00000000  0.26670681  0.50000000  1
  Ge  Ge11  4  0.00000000  0.26692012  0.00000000  1
  Ge  Ge12  4  0.00000000  0.33138051  0.50000000  1
  Ge  Ge13  4  0.00000000  0.33516068  0.00000000  1
  Ge  Ge14  4  0.00000000  0.46677446  0.00000000  1
  Ge  Ge15  4  0.00000000  0.46694455  0.50000000  1
  W  W16  16  0.24999683  0.44998169  0.25245672  1
  W  W17  16  0.24999936  0.15000483  0.24999586  1
  W  W18  8  0.00000000  0.10001864  0.25234363  1
  W  W19  8  0.00000000  0.30000345  0.24765358  1
  W  W20  8  0.25000000  0.25000000  0.24746533  1
  W  W21  4  0.00000000  0.50000000  0.25204994  1
