# generated using pymatgen
data_U(VGe)6
_symmetry_space_group_name_H-M   Cmmm
_cell_length_a   5.24967978
_cell_length_b   45.44354660
_cell_length_c   8.46246765
_cell_angle_alpha   90.00000000
_cell_angle_beta   90.00000000
_cell_angle_gamma   90.00000000
_symmetry_Int_Tables_number   65
_chemical_formula_structural   U(VGe)6
_chemical_formula_sum   'U10 V60 Ge60'
_cell_volume   2018.84070415
_cell_formula_units_Z   10
loop_
 _symmetry_equiv_pos_site_id
 _symmetry_equiv_pos_as_xyz
  1  'x, y, z'
  2  '-x, -y, -z'
  3  '-x, -y, z'
  4  'x, y, -z'
  5  'x, -y, -z'
  6  '-x, y, z'
  7  '-x, y, -z'
  8  'x, -y, z'
  9  'x+1/2, y+1/2, z'
  10  '-x+1/2, -y+1/2, -z'
  11  '-x+1/2, -y+1/2, z'
  12  'x+1/2, y+1/2, -z'
  13  'x+1/2, -y+1/2, -z'
  14  '-x+1/2, y+1/2, z'
  15  '-x+1/2, y+1/2, -z'
  16  'x+1/2, -y+1/2, z'
loop_
 _atom_site_type_symbol
 _atom_site_label
 _atom_site_symmetry_multiplicity
 _atom_site_fract_x
 _atom_site_fract_y
 _atom_site_fract_z
 _atom_site_occupancy
  U  U0  4  0.00000000  0.19999397  0.00000000  1
  U  U1  4  0.00000000  0.39999415  0.50000000  1
  U  U2  2  0.00000000  0.00000000  0.50000000  1
  V  V3  16  0.24999955  0.44999998  0.24997589  1
  V  V4  16  0.24999999  0.34999999  0.24999999  1
  V  V5  8  0.00000000  0.10000052  0.25000578  1
  V  V6  8  0.00000000  0.30000040  0.24999397  1
  V  V7  8  0.25000000  0.25000000  0.25002281  1
  V  V8  4  0.00000000  0.50000000  0.24997435  1
  Ge  Ge9  8  0.00000000  0.20000287  0.33302842  1
  Ge  Ge10  8  0.00000000  0.40000281  0.16697154  1
  Ge  Ge11  4  0.00000000  0.00000000  0.16697410  1
  Ge  Ge12  4  0.00000000  0.06699604  0.00000000  1
  Ge  Ge13  4  0.00000000  0.06699724  0.50000000  1
  Ge  Ge14  4  0.00000000  0.13300346  0.50000000  1
  Ge  Ge15  4  0.00000000  0.13300390  0.00000000  1
  Ge  Ge16  4  0.00000000  0.26699603  0.50000000  1
  Ge  Ge17  4  0.00000000  0.26699652  0.00000000  1
  Ge  Ge18  4  0.00000000  0.33300350  0.00000000  1
  Ge  Ge19  4  0.00000000  0.33300391  0.50000000  1
  Ge  Ge20  4  0.00000000  0.46699318  0.50000000  1
  Ge  Ge21  4  0.00000000  0.46699881  0.00000000  1
