# generated using pymatgen
data_U(TiSn)6
_symmetry_space_group_name_H-M   Cmmm
_cell_length_a   5.64102336
_cell_length_b   48.88236186
_cell_length_c   9.66747199
_cell_angle_alpha   90.00000000
_cell_angle_beta   90.00000000
_cell_angle_gamma   90.00000000
_symmetry_Int_Tables_number   65
_chemical_formula_structural   U(TiSn)6
_chemical_formula_sum   'U10 Ti60 Sn60'
_cell_volume   2665.77199951
_cell_formula_units_Z   10
loop_
 _symmetry_equiv_pos_site_id
 _symmetry_equiv_pos_as_xyz
  1  'x, y, z'
  2  '-x, -y, -z'
  3  '-x, -y, z'
  4  'x, y, -z'
  5  'x, -y, -z'
  6  '-x, y, z'
  7  '-x, y, -z'
  8  'x, -y, z'
  9  'x+1/2, y+1/2, z'
  10  '-x+1/2, -y+1/2, -z'
  11  '-x+1/2, -y+1/2, z'
  12  'x+1/2, y+1/2, -z'
  13  'x+1/2, -y+1/2, -z'
  14  '-x+1/2, y+1/2, z'
  15  '-x+1/2, y+1/2, -z'
  16  'x+1/2, -y+1/2, z'
loop_
 _atom_site_type_symbol
 _atom_site_label
 _atom_site_symmetry_multiplicity
 _atom_site_fract_x
 _atom_site_fract_y
 _atom_site_fract_z
 _atom_site_occupancy
  U  U0  4  0.00000000  0.10011882  0.00000000  1
  U  U1  4  0.00000000  0.30011829  0.50000000  1
  U  U2  2  0.00000000  0.50000000  0.00000000  1
  Ti  Ti3  16  0.24997176  0.44999715  0.24986424  1
  Ti  Ti4  16  0.24999944  0.35000009  0.24999985  1
  Ti  Ti5  8  0.00000000  0.20000677  0.25047384  1
  Ti  Ti6  8  0.00000000  0.40000684  0.24952519  1
  Ti  Ti7  8  0.25000000  0.25000000  0.25011242  1
  Ti  Ti8  4  0.00000000  0.00000000  0.24984209  1
  Sn  Sn9  8  0.00000000  0.09999713  0.33241388  1
  Sn  Sn10  8  0.00000000  0.29999441  0.16758985  1
  Sn  Sn11  4  0.00000000  0.03305285  0.50000000  1
  Sn  Sn12  4  0.00000000  0.03312315  0.00000000  1
  Sn  Sn13  4  0.00000000  0.16680591  0.00000000  1
  Sn  Sn14  4  0.00000000  0.16700020  0.50000000  1
  Sn  Sn15  4  0.00000000  0.23306818  0.00000000  1
  Sn  Sn16  4  0.00000000  0.23310533  0.50000000  1
  Sn  Sn17  4  0.00000000  0.36680585  0.50000000  1
  Sn  Sn18  4  0.00000000  0.36700016  0.00000000  1
  Sn  Sn19  4  0.00000000  0.43306385  0.50000000  1
  Sn  Sn20  4  0.00000000  0.43309478  0.00000000  1
  Sn  Sn21  4  0.00000000  0.50000000  0.33219229  1
