# generated using pymatgen
data_U(VSi)6
_symmetry_space_group_name_H-M   Cmcm
_cell_length_a   8.26034397
_cell_length_b   70.87341905
_cell_length_c   5.11708824
_cell_angle_alpha   90.00000000
_cell_angle_beta   90.00000000
_cell_angle_gamma   90.00000000
_symmetry_Int_Tables_number   63
_chemical_formula_structural   U(VSi)6
_chemical_formula_sum   'U16 V96 Si96'
_cell_volume   2995.74210306
_cell_formula_units_Z   16
loop_
 _symmetry_equiv_pos_site_id
 _symmetry_equiv_pos_as_xyz
  1  'x, y, z'
  2  '-x, -y, -z'
  3  '-x, -y, z+1/2'
  4  'x, y, -z+1/2'
  5  'x, -y, -z'
  6  '-x, y, z'
  7  '-x, y, -z+1/2'
  8  'x, -y, z+1/2'
  9  'x+1/2, y+1/2, z'
  10  '-x+1/2, -y+1/2, -z'
  11  '-x+1/2, -y+1/2, z+1/2'
  12  'x+1/2, y+1/2, -z+1/2'
  13  'x+1/2, -y+1/2, -z'
  14  '-x+1/2, y+1/2, z'
  15  '-x+1/2, y+1/2, -z+1/2'
  16  'x+1/2, -y+1/2, z+1/2'
loop_
 _atom_site_type_symbol
 _atom_site_label
 _atom_site_symmetry_multiplicity
 _atom_site_fract_x
 _atom_site_fract_y
 _atom_site_fract_z
 _atom_site_occupancy
  U  U0  4  0.00000000  0.03156624  0.25000000  1
  U  U1  4  0.00000000  0.28112317  0.25000000  1
  U  U2  4  0.00000000  0.34374961  0.75000000  1
  U  U3  4  0.00000000  0.40655269  0.25000000  1
  V  V4  16  0.24733330  0.18750881  0.00013137  1
  V  V5  16  0.24736825  0.12502357  0.00015594  1
  V  V6  16  0.24849612  0.06254133  0.50005625  1
  V  V7  8  0.24547964  0.21877352  0.25000000  1
  V  V8  8  0.24715779  0.15625796  0.75000000  1
  V  V9  8  0.24754882  0.09375923  0.25000000  1
  V  V10  8  0.24951707  0.03128305  0.75000000  1
  V  V11  8  0.24980067  0.00000000  0.00000000  1
  V  V12  8  0.25000000  0.25000000  0.00000000  1
  Si  Si13  8  0.15595311  0.15623446  0.25000000  1
  Si  Si14  8  0.15687329  0.09407629  0.75000000  1
  Si  Si15  8  0.15732175  0.21856577  0.75000000  1
  Si  Si16  8  0.15797830  0.46902793  0.75000000  1
  Si  Si17  4  0.00000000  0.01045181  0.75000000  1
  Si  Si18  4  0.00000000  0.05174355  0.75000000  1
  Si  Si19  4  0.00000000  0.07253989  0.25000000  1
  Si  Si20  4  0.00000000  0.11472567  0.25000000  1
  Si  Si21  4  0.00000000  0.13536198  0.75000000  1
  Si  Si22  4  0.00000000  0.17711115  0.75000000  1
  Si  Si23  4  0.00000000  0.19768955  0.25000000  1
  Si  Si24  4  0.00000000  0.24044017  0.25000000  1
  Si  Si25  4  0.00000000  0.26122107  0.75000000  1
  Si  Si26  4  0.00000000  0.30191248  0.75000000  1
  Si  Si27  4  0.00000000  0.32292859  0.25000000  1
  Si  Si28  4  0.00000000  0.36461760  0.25000000  1
  Si  Si29  4  0.00000000  0.38552096  0.75000000  1
  Si  Si30  4  0.00000000  0.42681084  0.75000000  1
  Si  Si31  4  0.00000000  0.44768949  0.25000000  1
  Si  Si32  4  0.00000000  0.48976888  0.25000000  1
