# generated using pymatgen
data_U(TiPb)6
_symmetry_space_group_name_H-M   Cmcm
_cell_length_a   10.03471118
_cell_length_b   40.03258776
_cell_length_c   5.77615310
_cell_angle_alpha   90.00000000
_cell_angle_beta   90.00000000
_cell_angle_gamma   90.00000000
_symmetry_Int_Tables_number   63
_chemical_formula_structural   U(TiPb)6
_chemical_formula_sum   'U8 Ti48 Pb48'
_cell_volume   2320.36997649
_cell_formula_units_Z   8
loop_
 _symmetry_equiv_pos_site_id
 _symmetry_equiv_pos_as_xyz
  1  'x, y, z'
  2  '-x, -y, -z'
  3  '-x, -y, z+1/2'
  4  'x, y, -z+1/2'
  5  'x, -y, -z'
  6  '-x, y, z'
  7  '-x, y, -z+1/2'
  8  'x, -y, z+1/2'
  9  'x+1/2, y+1/2, z'
  10  '-x+1/2, -y+1/2, -z'
  11  '-x+1/2, -y+1/2, z+1/2'
  12  'x+1/2, y+1/2, -z+1/2'
  13  'x+1/2, -y+1/2, -z'
  14  '-x+1/2, y+1/2, z'
  15  '-x+1/2, y+1/2, -z+1/2'
  16  'x+1/2, -y+1/2, z+1/2'
loop_
 _atom_site_type_symbol
 _atom_site_label
 _atom_site_symmetry_multiplicity
 _atom_site_fract_x
 _atom_site_fract_y
 _atom_site_fract_z
 _atom_site_occupancy
  U  U0  4  0.00000000  0.06358943  0.25000000  1
  U  U1  4  0.00000000  0.18938566  0.75000000  1
  Ti  Ti2  16  0.24531455  0.12489483  0.00130377  1
  Ti  Ti3  8  0.24182136  0.00000000  0.00000000  1
  Ti  Ti4  8  0.24327043  0.06250024  0.75000000  1
  Ti  Ti5  8  0.24354915  0.18771256  0.25000000  1
  Ti  Ti6  8  0.25000000  0.25000000  0.00000000  1
  Pb  Pb7  8  0.16940892  0.31282032  0.25000000  1
  Pb  Pb8  8  0.17420677  0.43855870  0.75000000  1
  Pb  Pb9  4  0.00000000  0.02136916  0.75000000  1
  Pb  Pb10  4  0.00000000  0.10497075  0.75000000  1
  Pb  Pb11  4  0.00000000  0.14680686  0.25000000  1
  Pb  Pb12  4  0.00000000  0.23006699  0.25000000  1
  Pb  Pb13  4  0.00000000  0.27284067  0.75000000  1
  Pb  Pb14  4  0.00000000  0.35465322  0.75000000  1
  Pb  Pb15  4  0.00000000  0.39712704  0.25000000  1
  Pb  Pb16  4  0.00000000  0.47873252  0.25000000  1
