# generated using pymatgen
data_U(TaSi)6
_symmetry_space_group_name_H-M   Cmcm
_cell_length_a   8.33130038
_cell_length_b   78.12407644
_cell_length_c   5.65744357
_cell_angle_alpha   90.00000000
_cell_angle_beta   90.00000000
_cell_angle_gamma   90.00000000
_symmetry_Int_Tables_number   63
_chemical_formula_structural   U(TaSi)6
_chemical_formula_sum   'U16 Ta96 Si96'
_cell_volume   3682.28942342
_cell_formula_units_Z   16
loop_
 _symmetry_equiv_pos_site_id
 _symmetry_equiv_pos_as_xyz
  1  'x, y, z'
  2  '-x, -y, -z'
  3  '-x, -y, z+1/2'
  4  'x, y, -z+1/2'
  5  'x, -y, -z'
  6  '-x, y, z'
  7  '-x, y, -z+1/2'
  8  'x, -y, z+1/2'
  9  'x+1/2, y+1/2, z'
  10  '-x+1/2, -y+1/2, -z'
  11  '-x+1/2, -y+1/2, z+1/2'
  12  'x+1/2, y+1/2, -z+1/2'
  13  'x+1/2, -y+1/2, -z'
  14  '-x+1/2, y+1/2, z'
  15  '-x+1/2, y+1/2, -z+1/2'
  16  'x+1/2, -y+1/2, z+1/2'
loop_
 _atom_site_type_symbol
 _atom_site_label
 _atom_site_symmetry_multiplicity
 _atom_site_fract_x
 _atom_site_fract_y
 _atom_site_fract_z
 _atom_site_occupancy
  U  U0  4  0.00000000  0.09400200  0.75000000  1
  U  U1  4  0.00000000  0.15625495  0.25000000  1
  U  U2  4  0.00000000  0.21842825  0.75000000  1
  U  U3  4  0.00000000  0.46899519  0.75000000  1
  Ta  Ta4  16  0.24619299  0.37499314  0.00001384  1
  Ta  Ta5  16  0.24643761  0.31248862  0.00008483  1
  Ta  Ta6  16  0.24777087  0.43756184  0.50003350  1
  Ta  Ta7  8  0.23582442  0.28120471  0.75000000  1
  Ta  Ta8  8  0.24016093  0.40628048  0.75000000  1
  Ta  Ta9  8  0.24456476  0.96876152  0.25000000  1
  Ta  Ta10  8  0.24511466  0.34374328  0.25000000  1
  Ta  Ta11  8  0.24926415  0.50000000  0.00000000  1
  Ta  Ta12  8  0.25000000  0.25000000  0.00000000  1
  Si  Si13  8  0.15567690  0.28130671  0.25000000  1
  Si  Si14  8  0.15580914  0.40613728  0.25000000  1
  Si  Si15  8  0.15625194  0.03114215  0.25000000  1
  Si  Si16  8  0.15627718  0.34373810  0.75000000  1
  Si  Si17  4  0.00000000  0.01002342  0.75000000  1
  Si  Si18  4  0.00000000  0.05344962  0.75000000  1
  Si  Si19  4  0.00000000  0.07455606  0.25000000  1
  Si  Si20  4  0.00000000  0.11413350  0.25000000  1
  Si  Si21  4  0.00000000  0.13553751  0.75000000  1
  Si  Si22  4  0.00000000  0.17693939  0.75000000  1
  Si  Si23  4  0.00000000  0.19868500  0.25000000  1
  Si  Si24  4  0.00000000  0.23719230  0.25000000  1
  Si  Si25  4  0.00000000  0.25857828  0.75000000  1
  Si  Si26  4  0.00000000  0.30267489  0.75000000  1
  Si  Si27  4  0.00000000  0.32277952  0.25000000  1
  Si  Si28  4  0.00000000  0.36469213  0.25000000  1
  Si  Si29  4  0.00000000  0.38508126  0.75000000  1
  Si  Si30  4  0.00000000  0.42834082  0.75000000  1
  Si  Si31  4  0.00000000  0.44946530  0.25000000  1
  Si  Si32  4  0.00000000  0.48911441  0.25000000  1
