# generated using pymatgen
data_U(OsPb)6
_symmetry_space_group_name_H-M   P2_1/m
_cell_length_a   10.32310788
_cell_length_b   5.05930098
_cell_length_c   42.01182525
_cell_angle_alpha   90.00000000
_cell_angle_beta   96.95364711
_cell_angle_gamma   90.00000000
_symmetry_Int_Tables_number   11
_chemical_formula_structural   U(OsPb)6
_chemical_formula_sum   'U8 Os48 Pb48'
_cell_volume   2178.04194268
_cell_formula_units_Z   8
loop_
 _symmetry_equiv_pos_site_id
 _symmetry_equiv_pos_as_xyz
  1  'x, y, z'
  2  '-x, -y, -z'
  3  '-x, y+1/2, -z'
  4  'x, -y+1/2, z'
loop_
 _atom_site_type_symbol
 _atom_site_label
 _atom_site_symmetry_multiplicity
 _atom_site_fract_x
 _atom_site_fract_y
 _atom_site_fract_z
 _atom_site_occupancy
  U  U0  2  0.03517872  0.25000000  0.56916663  1
  U  U1  2  0.27716908  0.25000000  0.05401175  1
  U  U2  2  0.34378083  0.75000000  0.18739362  1
  U  U3  2  0.40932061  0.25000000  0.32050727  1
  Os  Os4  4  0.06865568  0.50099319  0.12557148  1
  Os  Os5  4  0.13078119  0.50097156  0.24955335  1
  Os  Os6  4  0.18811449  0.00015488  0.37509258  1
  Os  Os7  4  0.24394128  0.00005546  0.50004761  1
  Os  Os8  4  0.31194793  0.50005384  0.62483839  1
  Os  Os9  4  0.38096073  0.00091737  0.75046919  1
  Os  Os10  4  0.44318443  0.00103617  0.87448983  1
  Os  Os11  2  0.00000000  0.00000000  0.00000000  1
  Os  Os12  2  0.08400377  0.75000000  0.06026791  1
  Os  Os13  2  0.15095047  0.25000000  0.18752505  1
  Os  Os14  2  0.15869429  0.25000000  0.43583620  1
  Os  Os15  2  0.21123487  0.75000000  0.31467919  1
  Os  Os16  2  0.22241727  0.75000000  0.56415279  1
  Os  Os17  2  0.39615938  0.25000000  0.68537145  1
  Os  Os18  2  0.46347982  0.75000000  0.81251939  1
  Os  Os19  2  0.47624941  0.75000000  0.06022454  1
  Os  Os20  2  0.50000000  0.00000000  0.00000000  1
  Pb  Pb21  2  0.00950030  0.75000000  0.51906514  1
  Pb  Pb22  2  0.02689797  0.75000000  0.18756167  1
  Pb  Pb23  2  0.03066335  0.75000000  0.93424925  1
  Pb  Pb24  2  0.05573438  0.75000000  0.61263084  1
  Pb  Pb25  2  0.07862091  0.25000000  0.65360831  1
  Pb  Pb26  2  0.09056407  0.25000000  0.30942038  1
  Pb  Pb27  2  0.11527272  0.25000000  0.73142097  1
  Pb  Pb28  2  0.13692375  0.75000000  0.77260477  1
  Pb  Pb29  2  0.17554118  0.75000000  0.85237800  1
  Pb  Pb30  2  0.19711064  0.25000000  0.89346737  1
  Pb  Pb31  2  0.23478387  0.25000000  0.97086490  1
  Pb  Pb32  2  0.25611287  0.75000000  0.01203922  1
  Pb  Pb33  2  0.28174101  0.75000000  0.69062283  1
  Pb  Pb34  2  0.28241068  0.75000000  0.43972988  1
  Pb  Pb35  2  0.30158094  0.75000000  0.10344237  1
  Pb  Pb36  2  0.32079799  0.25000000  0.14151469  1
  Pb  Pb37  2  0.33927934  0.25000000  0.81249425  1
  Pb  Pb38  2  0.34316648  0.25000000  0.56028922  1
  Pb  Pb39  2  0.36659665  0.25000000  0.23338058  1
  Pb  Pb40  2  0.38602110  0.75000000  0.27141720  1
  Pb  Pb41  2  0.40349857  0.75000000  0.93426830  1
  Pb  Pb42  2  0.43168099  0.75000000  0.36253761  1
  Pb  Pb43  2  0.45114099  0.25000000  0.40322798  1
  Pb  Pb44  2  0.48976275  0.25000000  0.48001253  1
