# generated using pymatgen
data_U(PbW)6
_symmetry_space_group_name_H-M   P-1
_cell_length_a   5.45425983
_cell_length_b   11.71535490
_cell_length_c   37.37522784
_cell_angle_alpha   93.38415461
_cell_angle_beta   90.29638808
_cell_angle_gamma   99.92123203
_symmetry_Int_Tables_number   2
_chemical_formula_structural   U(PbW)6
_chemical_formula_sum   'U8 Pb48 W48'
_cell_volume   2348.12152468
_cell_formula_units_Z   8
loop_
 _symmetry_equiv_pos_site_id
 _symmetry_equiv_pos_as_xyz
  1  'x, y, z'
  2  '-x, -y, -z'
loop_
 _atom_site_type_symbol
 _atom_site_label
 _atom_site_symmetry_multiplicity
 _atom_site_fract_x
 _atom_site_fract_y
 _atom_site_fract_z
 _atom_site_occupancy
  U  U0  2  0.24956919  0.72012810  0.56184995  1
  U  U1  2  0.24998021  0.34376982  0.31251113  1
  U  U2  2  0.25043060  0.96789169  0.06342793  1
  U  U3  2  0.25079631  0.59246537  0.81280526  1
  Pb  Pb4  2  0.24435064  0.00949088  0.97920540  1
  Pb  Pb5  2  0.24503037  0.27467178  0.81107226  1
  Pb  Pb6  2  0.24533780  0.64750999  0.05974740  1
  Pb  Pb7  2  0.24535031  0.80374205  0.39572157  1
  Pb  Pb8  2  0.24543698  0.39599923  0.56186349  1
  Pb  Pb9  2  0.24546103  0.02067843  0.31176653  1
  Pb  Pb10  2  0.24549244  0.17868035  0.64606281  1
  Pb  Pb11  2  0.24623922  0.54597857  0.89675040  1
  Pb  Pb12  2  0.24662038  0.38400577  0.22889335  1
  Pb  Pb13  2  0.24683528  0.63371008  0.72928931  1
  Pb  Pb14  2  0.24888672  0.25569527  0.48039393  1
  Pb  Pb15  2  0.24928802  0.92639417  0.14730467  1
  Pb  Pb16  2  0.24959298  0.43192258  0.14450895  1
  Pb  Pb17  2  0.25243950  0.76352195  0.47816286  1
  Pb  Pb18  2  0.25309861  0.67896233  0.64547959  1
  Pb  Pb19  2  0.25315279  0.05425536  0.89373536  1
  Pb  Pb20  2  0.25325561  0.30335504  0.39601925  1
  Pb  Pb21  2  0.25447612  0.66679930  0.31325366  1
  Pb  Pb22  2  0.25454953  0.88303862  0.22937720  1
  Pb  Pb23  2  0.25455683  0.13382644  0.72895091  1
  Pb  Pb24  2  0.25476381  0.91491229  0.81300332  1
  Pb  Pb25  2  0.25493820  0.29104012  0.06246463  1
  Pb  Pb26  2  0.25539000  0.50980225  0.97917207  1
  Pb  Pb27  2  0.25543368  0.04135965  0.56437191  1
  W  W28  2  0.00053984  0.69725919  0.12355179  1
  W  W29  2  0.00572407  0.77996970  0.00201134  1
  W  W30  2  0.00581527  0.39146494  0.75199690  1
  W  W31  2  0.00621325  0.18089219  0.12394282  1
  W  W32  2  0.00714800  0.92404778  0.62432533  1
  W  W33  2  0.00722602  0.14141746  0.25185797  1
  W  W34  2  0.00730261  0.54932650  0.37429098  1
  W  W35  2  0.23787364  0.51667755  0.43803348  1
  W  W36  2  0.23837378  0.89166520  0.68793011  1
  W  W37  2  0.23846084  0.64242619  0.18758742  1
  W  W38  2  0.23941205  0.25615242  0.93783829  1
  W  W39  2  0.26106819  0.80497926  0.93665878  1
  W  W40  2  0.26125297  0.04602524  0.43722761  1
  W  W41  2  0.26165598  0.42070974  0.68707597  1
  W  W42  2  0.26285431  0.17019141  0.18693342  1
  W  W43  2  0.48957732  0.77166036  0.00035124  1
  W  W44  2  0.49213120  0.13836981  0.25075357  1
  W  W45  2  0.49327845  0.54637975  0.37317969  1
  W  W46  2  0.49337465  0.92107409  0.62313184  1
  W  W47  2  0.49363936  0.38848626  0.75073756  1
  W  W48  2  0.49599638  0.17464393  0.12419972  1
  W  W49  2  0.49635806  0.70299676  0.12430535  1
  W  W50  1  0.00000000  0.00000000  0.50000000  1
  W  W51  1  0.00000000  0.50000000  0.50000000  1
  W  W52  1  0.50000000  0.00000000  0.50000000  1
  W  W53  1  0.50000000  0.50000000  0.50000000  1
