# generated using pymatgen
data_U(SnPt)6
_symmetry_space_group_name_H-M   Cmmm
_cell_length_a   5.75835040
_cell_length_b   49.66295365
_cell_length_c   8.98037353
_cell_angle_alpha   90.00000000
_cell_angle_beta   90.00000000
_cell_angle_gamma   90.00000000
_symmetry_Int_Tables_number   65
_chemical_formula_structural   U(SnPt)6
_chemical_formula_sum   'U10 Sn60 Pt60'
_cell_volume   2568.17748761
_cell_formula_units_Z   10
loop_
 _symmetry_equiv_pos_site_id
 _symmetry_equiv_pos_as_xyz
  1  'x, y, z'
  2  '-x, -y, -z'
  3  '-x, -y, z'
  4  'x, y, -z'
  5  'x, -y, -z'
  6  '-x, y, z'
  7  '-x, y, -z'
  8  'x, -y, z'
  9  'x+1/2, y+1/2, z'
  10  '-x+1/2, -y+1/2, -z'
  11  '-x+1/2, -y+1/2, z'
  12  'x+1/2, y+1/2, -z'
  13  'x+1/2, -y+1/2, -z'
  14  '-x+1/2, y+1/2, z'
  15  '-x+1/2, y+1/2, -z'
  16  'x+1/2, -y+1/2, z'
loop_
 _atom_site_type_symbol
 _atom_site_label
 _atom_site_symmetry_multiplicity
 _atom_site_fract_x
 _atom_site_fract_y
 _atom_site_fract_z
 _atom_site_occupancy
  U  U0  4  0.00000000  0.19960870  0.00000000  1
  U  U1  4  0.00000000  0.39961630  0.50000000  1
  U  U2  2  0.00000000  0.00000000  0.50000000  1
  Sn  Sn3  8  0.00000000  0.19993036  0.33594736  1
  Sn  Sn4  8  0.00000000  0.39991611  0.16403983  1
  Sn  Sn5  4  0.00000000  0.00000000  0.16424792  1
  Sn  Sn6  4  0.00000000  0.06678917  0.50000000  1
  Sn  Sn7  4  0.00000000  0.06690506  0.00000000  1
  Sn  Sn8  4  0.00000000  0.13276699  0.00000000  1
  Sn  Sn9  4  0.00000000  0.13365477  0.50000000  1
  Sn  Sn10  4  0.00000000  0.26676271  0.00000000  1
  Sn  Sn11  4  0.00000000  0.26690797  0.50000000  1
  Sn  Sn12  4  0.00000000  0.33276397  0.50000000  1
  Sn  Sn13  4  0.00000000  0.33365130  0.00000000  1
  Sn  Sn14  4  0.00000000  0.46681290  0.50000000  1
  Sn  Sn15  4  0.00000000  0.46689388  0.00000000  1
  Pt  Pt16  16  0.24989414  0.44996857  0.25177733  1
  Pt  Pt17  16  0.24999696  0.34999845  0.25000235  1
  Pt  Pt18  8  0.00000000  0.10002797  0.25358849  1
  Pt  Pt19  8  0.00000000  0.30002300  0.24642345  1
  Pt  Pt20  8  0.25000000  0.25000000  0.24807634  1
  Pt  Pt21  4  0.00000000  0.50000000  0.25135582  1
