# generated using pymatgen
data_U(CoSi)6
_symmetry_space_group_name_H-M   Cmcm
_cell_length_a   7.51794797
_cell_length_b   68.28549098
_cell_length_c   4.92680800
_cell_angle_alpha   90.00000000
_cell_angle_beta   90.00000000
_cell_angle_gamma   90.00000000
_symmetry_Int_Tables_number   63
_chemical_formula_structural   U(CoSi)6
_chemical_formula_sum   'U16 Co96 Si96'
_cell_volume   2529.25950323
_cell_formula_units_Z   16
loop_
 _symmetry_equiv_pos_site_id
 _symmetry_equiv_pos_as_xyz
  1  'x, y, z'
  2  '-x, -y, -z'
  3  '-x, -y, z+1/2'
  4  'x, y, -z+1/2'
  5  'x, -y, -z'
  6  '-x, y, z'
  7  '-x, y, -z+1/2'
  8  'x, -y, z+1/2'
  9  'x+1/2, y+1/2, z'
  10  '-x+1/2, -y+1/2, -z'
  11  '-x+1/2, -y+1/2, z+1/2'
  12  'x+1/2, y+1/2, -z+1/2'
  13  'x+1/2, -y+1/2, -z'
  14  '-x+1/2, y+1/2, z'
  15  '-x+1/2, y+1/2, -z+1/2'
  16  'x+1/2, -y+1/2, z+1/2'
loop_
 _atom_site_type_symbol
 _atom_site_label
 _atom_site_symmetry_multiplicity
 _atom_site_fract_x
 _atom_site_fract_y
 _atom_site_fract_z
 _atom_site_occupancy
  U  U0  4  0.00000000  0.09318858  0.25000000  1
  U  U1  4  0.00000000  0.15624228  0.75000000  1
  U  U2  4  0.00000000  0.21918255  0.25000000  1
  U  U3  4  0.00000000  0.46823764  0.25000000  1
  Co  Co4  16  0.24534597  0.68750363  0.50004692  1
  Co  Co5  16  0.24538728  0.62501371  0.50009598  1
  Co  Co6  16  0.24797278  0.43750924  0.00056975  1
  Co  Co7  8  0.24572935  0.34375078  0.75000000  1
  Co  Co8  8  0.24748341  0.46873974  0.75000000  1
  Co  Co9  8  0.24780009  0.71872558  0.75000000  1
  Co  Co10  8  0.24845252  0.00000000  0.00000000  1
  Co  Co11  8  0.24919932  0.40621115  0.25000000  1
  Co  Co12  8  0.25000000  0.25000000  0.00000000  1
  Si  Si13  8  0.15003579  0.34375706  0.25000000  1
  Si  Si14  8  0.15046969  0.28128119  0.75000000  1
  Si  Si15  8  0.15070588  0.40611866  0.75000000  1
  Si  Si16  8  0.15101828  0.03115270  0.75000000  1
  Si  Si17  4  0.00000000  0.01037640  0.25000000  1
  Si  Si18  4  0.00000000  0.05083230  0.25000000  1
  Si  Si19  4  0.00000000  0.07148380  0.75000000  1
  Si  Si20  4  0.00000000  0.11451997  0.75000000  1
  Si  Si21  4  0.00000000  0.13523227  0.25000000  1
  Si  Si22  4  0.00000000  0.17721122  0.25000000  1
  Si  Si23  4  0.00000000  0.19796297  0.75000000  1
  Si  Si24  4  0.00000000  0.24073793  0.75000000  1
  Si  Si25  4  0.00000000  0.26143252  0.25000000  1
  Si  Si26  4  0.00000000  0.30217545  0.25000000  1
  Si  Si27  4  0.00000000  0.32295206  0.75000000  1
  Si  Si28  4  0.00000000  0.36452797  0.75000000  1
  Si  Si29  4  0.00000000  0.38533107  0.25000000  1
  Si  Si30  4  0.00000000  0.42578229  0.25000000  1
  Si  Si31  4  0.00000000  0.44645688  0.75000000  1
  Si  Si32  4  0.00000000  0.48968305  0.75000000  1
