# generated using pymatgen
data_U(TiSn)6
_symmetry_space_group_name_H-M   Cmcm
_cell_length_a   9.66416042
_cell_length_b   78.24183630
_cell_length_c   5.64625472
_cell_angle_alpha   90.00000000
_cell_angle_beta   90.00000000
_cell_angle_gamma   90.00000000
_symmetry_Int_Tables_number   63
_chemical_formula_structural   U(TiSn)6
_chemical_formula_sum   'U16 Ti96 Sn96'
_cell_volume   4269.36840101
_cell_formula_units_Z   16
loop_
 _symmetry_equiv_pos_site_id
 _symmetry_equiv_pos_as_xyz
  1  'x, y, z'
  2  '-x, -y, -z'
  3  '-x, -y, z+1/2'
  4  'x, y, -z+1/2'
  5  'x, -y, -z'
  6  '-x, y, z'
  7  '-x, y, -z+1/2'
  8  'x, -y, z+1/2'
  9  'x+1/2, y+1/2, z'
  10  '-x+1/2, -y+1/2, -z'
  11  '-x+1/2, -y+1/2, z+1/2'
  12  'x+1/2, y+1/2, -z+1/2'
  13  'x+1/2, -y+1/2, -z'
  14  '-x+1/2, y+1/2, z'
  15  '-x+1/2, y+1/2, -z+1/2'
  16  'x+1/2, -y+1/2, z+1/2'
loop_
 _atom_site_type_symbol
 _atom_site_label
 _atom_site_symmetry_multiplicity
 _atom_site_fract_x
 _atom_site_fract_y
 _atom_site_fract_z
 _atom_site_occupancy
  U  U0  4  0.00000000  0.03141701  0.75000000  1
  U  U1  4  0.00000000  0.28126207  0.75000000  1
  U  U2  4  0.00000000  0.34376003  0.25000000  1
  U  U3  4  0.00000000  0.40641629  0.75000000  1
  Ti  Ti4  16  0.24853964  0.06240805  0.50047542  1
  Ti  Ti5  16  0.24859193  0.81245012  0.50010350  1
  Ti  Ti6  16  0.24879225  0.12498814  0.50008446  1
  Ti  Ti7  8  0.24734835  0.03122399  0.25000000  1
  Ti  Ti8  8  0.24805663  0.00000000  0.00000000  1
  Ti  Ti9  8  0.24848515  0.78122808  0.25000000  1
  Ti  Ti10  8  0.24882065  0.84374514  0.75000000  1
  Ti  Ti11  8  0.24957578  0.09374709  0.75000000  1
  Ti  Ti12  8  0.25000000  0.25000000  0.00000000  1
  Sn  Sn13  8  0.16802088  0.21886434  0.25000000  1
  Sn  Sn14  8  0.16838924  0.46877802  0.25000000  1
  Sn  Sn15  8  0.16845864  0.09375435  0.25000000  1
  Sn  Sn16  8  0.16916360  0.15625665  0.75000000  1
  Sn  Sn17  4  0.00000000  0.01037934  0.25000000  1
  Sn  Sn18  4  0.00000000  0.05190636  0.25000000  1
  Sn  Sn19  4  0.00000000  0.07272031  0.75000000  1
  Sn  Sn20  4  0.00000000  0.11458586  0.75000000  1
  Sn  Sn21  4  0.00000000  0.13538717  0.25000000  1
  Sn  Sn22  4  0.00000000  0.17711239  0.25000000  1
  Sn  Sn23  4  0.00000000  0.19799381  0.75000000  1
  Sn  Sn24  4  0.00000000  0.24013578  0.75000000  1
  Sn  Sn25  4  0.00000000  0.26092442  0.25000000  1
  Sn  Sn26  4  0.00000000  0.30211735  0.25000000  1
  Sn  Sn27  4  0.00000000  0.32291402  0.75000000  1
  Sn  Sn28  4  0.00000000  0.36463106  0.75000000  1
  Sn  Sn29  4  0.00000000  0.38542580  0.25000000  1
  Sn  Sn30  4  0.00000000  0.42687159  0.25000000  1
  Sn  Sn31  4  0.00000000  0.44767700  0.75000000  1
  Sn  Sn32  4  0.00000000  0.48959702  0.75000000  1
