# generated using pymatgen
data_Zr6USn6
_symmetry_space_group_name_H-M   Immm
_cell_length_a   6.09760251
_cell_length_b   9.87152417
_cell_length_c   31.72374574
_cell_angle_alpha   90.00000000
_cell_angle_beta   90.00000000
_cell_angle_gamma   90.00000000
_symmetry_Int_Tables_number   71
_chemical_formula_structural   Zr6USn6
_chemical_formula_sum   'Zr36 U6 Sn36'
_cell_volume   1909.53570752
_cell_formula_units_Z   6
loop_
 _symmetry_equiv_pos_site_id
 _symmetry_equiv_pos_as_xyz
  1  'x, y, z'
  2  '-x, -y, -z'
  3  '-x, -y, z'
  4  'x, y, -z'
  5  'x, -y, -z'
  6  '-x, y, z'
  7  '-x, y, -z'
  8  'x, -y, z'
  9  'x+1/2, y+1/2, z+1/2'
  10  '-x+1/2, -y+1/2, -z+1/2'
  11  '-x+1/2, -y+1/2, z+1/2'
  12  'x+1/2, y+1/2, -z+1/2'
  13  'x+1/2, -y+1/2, -z+1/2'
  14  '-x+1/2, y+1/2, z+1/2'
  15  '-x+1/2, y+1/2, -z+1/2'
  16  'x+1/2, -y+1/2, z+1/2'
loop_
 _atom_site_type_symbol
 _atom_site_label
 _atom_site_symmetry_multiplicity
 _atom_site_fract_x
 _atom_site_fract_y
 _atom_site_fract_z
 _atom_site_occupancy
  Zr  Zr0  16  0.24971519  0.25454326  0.91665836  1
  Zr  Zr1  8  0.00000000  0.25437543  0.33355919  1
  Zr  Zr2  8  0.25000000  0.25000000  0.25000000  1
  Zr  Zr3  4  0.00000000  0.25381686  0.00000000  1
  U  U4  4  0.00000000  0.50000000  0.16545037  1
  U  U5  2  0.00000000  0.00000000  0.50000000  1
  Sn  Sn6  8  0.00000000  0.18766743  0.16689672  1
  Sn  Sn7  4  0.00000000  0.00000000  0.05557175  1
  Sn  Sn8  4  0.00000000  0.00000000  0.28338450  1
  Sn  Sn9  4  0.00000000  0.00000000  0.38742056  1
  Sn  Sn10  4  0.00000000  0.31130864  0.50000000  1
  Sn  Sn11  4  0.00000000  0.50000000  0.05557566  1
  Sn  Sn12  4  0.00000000  0.50000000  0.27176554  1
  Sn  Sn13  4  0.00000000  0.50000000  0.39131147  1
