# generated using pymatgen
data_U(PbW)6
_symmetry_space_group_name_H-M   Cmcm
_cell_length_a   12.00367284
_cell_length_b   37.14830458
_cell_length_c   5.35832352
_cell_angle_alpha   90.00000000
_cell_angle_beta   90.00000000
_cell_angle_gamma   90.00000000
_symmetry_Int_Tables_number   63
_chemical_formula_structural   U(PbW)6
_chemical_formula_sum   'U8 Pb48 W48'
_cell_volume   2389.36269809
_cell_formula_units_Z   8
loop_
 _symmetry_equiv_pos_site_id
 _symmetry_equiv_pos_as_xyz
  1  'x, y, z'
  2  '-x, -y, -z'
  3  '-x, -y, z+1/2'
  4  'x, y, -z+1/2'
  5  'x, -y, -z'
  6  '-x, y, z'
  7  '-x, y, -z+1/2'
  8  'x, -y, z+1/2'
  9  'x+1/2, y+1/2, z'
  10  '-x+1/2, -y+1/2, -z'
  11  '-x+1/2, -y+1/2, z+1/2'
  12  'x+1/2, y+1/2, -z+1/2'
  13  'x+1/2, -y+1/2, -z'
  14  '-x+1/2, y+1/2, z'
  15  '-x+1/2, y+1/2, -z+1/2'
  16  'x+1/2, -y+1/2, z+1/2'
loop_
 _atom_site_type_symbol
 _atom_site_label
 _atom_site_symmetry_multiplicity
 _atom_site_fract_x
 _atom_site_fract_y
 _atom_site_fract_z
 _atom_site_occupancy
  U  U0  4  0.00000000  0.06329850  0.75000000  1
  U  U1  4  0.00000000  0.19049381  0.25000000  1
  Pb  Pb2  8  0.17979201  0.31540110  0.75000000  1
  Pb  Pb3  8  0.18321910  0.43805010  0.25000000  1
  Pb  Pb4  4  0.00000000  0.02116184  0.25000000  1
  Pb  Pb5  4  0.00000000  0.10576718  0.25000000  1
  Pb  Pb6  4  0.00000000  0.14779529  0.75000000  1
  Pb  Pb7  4  0.00000000  0.23473693  0.75000000  1
  Pb  Pb8  4  0.00000000  0.27598982  0.25000000  1
  Pb  Pb9  4  0.00000000  0.35790877  0.25000000  1
  Pb  Pb10  4  0.00000000  0.39740536  0.75000000  1
  Pb  Pb11  4  0.00000000  0.47969820  0.75000000  1
  W  W12  16  0.20616215  0.12496398  0.50245631  1
  W  W13  8  0.20386233  0.18929749  0.75000000  1
  W  W14  8  0.20625762  0.06270905  0.25000000  1
  W  W15  8  0.20631245  0.00000000  0.00000000  1
  W  W16  8  0.25000000  0.25000000  0.00000000  1
