# generated using pymatgen
data_U(SnPd)6
_symmetry_space_group_name_H-M   Cmcm
_cell_length_a   8.94260358
_cell_length_b   40.19615743
_cell_length_c   5.72460292
_cell_angle_alpha   90.00000000
_cell_angle_beta   90.00000000
_cell_angle_gamma   90.00000000
_symmetry_Int_Tables_number   63
_chemical_formula_structural   U(SnPd)6
_chemical_formula_sum   'U8 Sn48 Pd48'
_cell_volume   2057.75604210
_cell_formula_units_Z   8
loop_
 _symmetry_equiv_pos_site_id
 _symmetry_equiv_pos_as_xyz
  1  'x, y, z'
  2  '-x, -y, -z'
  3  '-x, -y, z+1/2'
  4  'x, y, -z+1/2'
  5  'x, -y, -z'
  6  '-x, y, z'
  7  '-x, y, -z+1/2'
  8  'x, -y, z+1/2'
  9  'x+1/2, y+1/2, z'
  10  '-x+1/2, -y+1/2, -z'
  11  '-x+1/2, -y+1/2, z+1/2'
  12  'x+1/2, y+1/2, -z+1/2'
  13  'x+1/2, -y+1/2, -z'
  14  '-x+1/2, y+1/2, z'
  15  '-x+1/2, y+1/2, -z+1/2'
  16  'x+1/2, -y+1/2, z+1/2'
loop_
 _atom_site_type_symbol
 _atom_site_label
 _atom_site_symmetry_multiplicity
 _atom_site_fract_x
 _atom_site_fract_y
 _atom_site_fract_z
 _atom_site_occupancy
  U  U0  4  0.00000000  0.06803945  0.75000000  1
  U  U1  4  0.00000000  0.19472128  0.25000000  1
  Sn  Sn2  8  0.16247609  0.31302087  0.75000000  1
  Sn  Sn3  8  0.16304772  0.43967864  0.25000000  1
  Sn  Sn4  4  0.00000000  0.02112857  0.25000000  1
  Sn  Sn5  4  0.00000000  0.10611533  0.25000000  1
  Sn  Sn6  4  0.00000000  0.14673459  0.75000000  1
  Sn  Sn7  4  0.00000000  0.23059651  0.75000000  1
  Sn  Sn8  4  0.00000000  0.27440100  0.25000000  1
  Sn  Sn9  4  0.00000000  0.35507963  0.25000000  1
  Sn  Sn10  4  0.00000000  0.39679601  0.75000000  1
  Sn  Sn11  4  0.00000000  0.47801863  0.75000000  1
  Pd  Pd12  16  0.24869230  0.12414034  0.50275283  1
  Pd  Pd13  8  0.24023496  0.18750592  0.75000000  1
  Pd  Pd14  8  0.24198244  0.06247463  0.25000000  1
  Pd  Pd15  8  0.24352424  0.00000000  0.00000000  1
  Pd  Pd16  8  0.25000000  0.25000000  0.00000000  1
