# generated using pymatgen
data_U(RhPb)6
_symmetry_space_group_name_H-M   Cmmm
_cell_length_a   5.69974020
_cell_length_b   49.49216734
_cell_length_c   9.39341475
_cell_angle_alpha   90.00000000
_cell_angle_beta   90.00000000
_cell_angle_gamma   90.00000000
_symmetry_Int_Tables_number   65
_chemical_formula_structural   U(RhPb)6
_chemical_formula_sum   'U10 Rh60 Pb60'
_cell_volume   2649.81180977
_cell_formula_units_Z   10
loop_
 _symmetry_equiv_pos_site_id
 _symmetry_equiv_pos_as_xyz
  1  'x, y, z'
  2  '-x, -y, -z'
  3  '-x, -y, z'
  4  'x, y, -z'
  5  'x, -y, -z'
  6  '-x, y, z'
  7  '-x, y, -z'
  8  'x, -y, z'
  9  'x+1/2, y+1/2, z'
  10  '-x+1/2, -y+1/2, -z'
  11  '-x+1/2, -y+1/2, z'
  12  'x+1/2, y+1/2, -z'
  13  'x+1/2, -y+1/2, -z'
  14  '-x+1/2, y+1/2, z'
  15  '-x+1/2, y+1/2, -z'
  16  'x+1/2, -y+1/2, z'
loop_
 _atom_site_type_symbol
 _atom_site_label
 _atom_site_symmetry_multiplicity
 _atom_site_fract_x
 _atom_site_fract_y
 _atom_site_fract_z
 _atom_site_occupancy
  U  U0  4  0.00000000  0.10013499  0.50000000  1
  U  U1  4  0.00000000  0.30010657  0.00000000  1
  U  U2  2  0.00000000  0.50000000  0.50000000  1
  Rh  Rh3  16  0.24997091  0.45000947  0.25800092  1
  Rh  Rh4  16  0.24999639  0.14999837  0.25000215  1
  Rh  Rh5  8  0.00000000  0.19993710  0.24034873  1
  Rh  Rh6  8  0.00000000  0.39993995  0.25963522  1
  Rh  Rh7  8  0.25000000  0.25000000  0.24192108  1
  Rh  Rh8  4  0.00000000  0.00000000  0.25803515  1
  Pb  Pb9  8  0.00000000  0.09975051  0.17437534  1
  Pb  Pb10  8  0.00000000  0.29975800  0.32562094  1
  Pb  Pb11  4  0.00000000  0.03325874  0.00000000  1
  Pb  Pb12  4  0.00000000  0.03334142  0.50000000  1
  Pb  Pb13  4  0.00000000  0.16614733  0.00000000  1
  Pb  Pb14  4  0.00000000  0.16701736  0.50000000  1
  Pb  Pb15  4  0.00000000  0.23324741  0.00000000  1
  Pb  Pb16  4  0.00000000  0.23335775  0.50000000  1
  Pb  Pb17  4  0.00000000  0.36614293  0.50000000  1
  Pb  Pb18  4  0.00000000  0.36701384  0.00000000  1
  Pb  Pb19  4  0.00000000  0.43322982  0.50000000  1
  Pb  Pb20  4  0.00000000  0.43338659  0.00000000  1
  Pb  Pb21  4  0.00000000  0.50000000  0.17407198  1
