# generated using pymatgen
data_U(FeSi)6
_symmetry_space_group_name_H-M   Cmcm
_cell_length_a   7.92762260
_cell_length_b   66.38192506
_cell_length_c   4.78885007
_cell_angle_alpha   90.00000000
_cell_angle_beta   90.00000000
_cell_angle_gamma   90.00000000
_symmetry_Int_Tables_number   63
_chemical_formula_structural   U(FeSi)6
_chemical_formula_sum   'U16 Fe96 Si96'
_cell_volume   2520.13641513
_cell_formula_units_Z   16
loop_
 _symmetry_equiv_pos_site_id
 _symmetry_equiv_pos_as_xyz
  1  'x, y, z'
  2  '-x, -y, -z'
  3  '-x, -y, z+1/2'
  4  'x, y, -z+1/2'
  5  'x, -y, -z'
  6  '-x, y, z'
  7  '-x, y, -z+1/2'
  8  'x, -y, z+1/2'
  9  'x+1/2, y+1/2, z'
  10  '-x+1/2, -y+1/2, -z'
  11  '-x+1/2, -y+1/2, z+1/2'
  12  'x+1/2, y+1/2, -z+1/2'
  13  'x+1/2, -y+1/2, -z'
  14  '-x+1/2, y+1/2, z'
  15  '-x+1/2, y+1/2, -z+1/2'
  16  'x+1/2, -y+1/2, z+1/2'
loop_
 _atom_site_type_symbol
 _atom_site_label
 _atom_site_symmetry_multiplicity
 _atom_site_fract_x
 _atom_site_fract_y
 _atom_site_fract_z
 _atom_site_occupancy
  U  U0  4  0.00000000  0.03246557  0.25000000  1
  U  U1  4  0.00000000  0.27990171  0.25000000  1
  U  U2  4  0.00000000  0.34378317  0.75000000  1
  U  U3  4  0.00000000  0.40777414  0.25000000  1
  Fe  Fe4  16  0.24715868  0.18749395  0.00072408  1
  Fe  Fe5  16  0.24717620  0.12502904  0.00097330  1
  Fe  Fe6  16  0.24960361  0.06252322  0.50031850  1
  Fe  Fe7  8  0.24725292  0.96870776  0.25000000  1
  Fe  Fe8  8  0.24841903  0.84375660  0.25000000  1
  Fe  Fe9  8  0.24847509  0.50000000  0.00000000  1
  Fe  Fe10  8  0.24885909  0.40634656  0.75000000  1
  Fe  Fe11  8  0.24969319  0.28116787  0.75000000  1
  Fe  Fe12  8  0.25000000  0.25000000  0.00000000  1
  Si  Si13  8  0.14637651  0.78129867  0.25000000  1
  Si  Si14  8  0.14643649  0.09390752  0.75000000  1
  Si  Si15  8  0.14678536  0.84374695  0.75000000  1
  Si  Si16  8  0.14678825  0.46883554  0.75000000  1
  Si  Si17  4  0.00000000  0.01022451  0.75000000  1
  Si  Si18  4  0.00000000  0.05501459  0.75000000  1
  Si  Si19  4  0.00000000  0.07533537  0.25000000  1
  Si  Si20  4  0.00000000  0.11484466  0.25000000  1
  Si  Si21  4  0.00000000  0.13546708  0.75000000  1
  Si  Si22  4  0.00000000  0.17703736  0.75000000  1
  Si  Si23  4  0.00000000  0.19766473  0.25000000  1
  Si  Si24  4  0.00000000  0.23721294  0.25000000  1
  Si  Si25  4  0.00000000  0.25764999  0.75000000  1
  Si  Si26  4  0.00000000  0.30174455  0.75000000  1
  Si  Si27  4  0.00000000  0.32237990  0.25000000  1
  Si  Si28  4  0.00000000  0.36522648  0.25000000  1
  Si  Si29  4  0.00000000  0.38582677  0.75000000  1
  Si  Si30  4  0.00000000  0.43012754  0.75000000  1
  Si  Si31  4  0.00000000  0.45056002  0.25000000  1
  Si  Si32  4  0.00000000  0.48985478  0.25000000  1
