# generated using pymatgen
data_U(GeRu)6
_symmetry_space_group_name_H-M   Cmcm
_cell_length_a   8.05667117
_cell_length_b   75.27867928
_cell_length_c   5.42854869
_cell_angle_alpha   90.00000000
_cell_angle_beta   90.00000000
_cell_angle_gamma   90.00000000
_symmetry_Int_Tables_number   63
_chemical_formula_structural   U(GeRu)6
_chemical_formula_sum   'U16 Ge96 Ru96'
_cell_volume   3292.39070448
_cell_formula_units_Z   16
loop_
 _symmetry_equiv_pos_site_id
 _symmetry_equiv_pos_as_xyz
  1  'x, y, z'
  2  '-x, -y, -z'
  3  '-x, -y, z+1/2'
  4  'x, y, -z+1/2'
  5  'x, -y, -z'
  6  '-x, y, z'
  7  '-x, y, -z+1/2'
  8  'x, -y, z+1/2'
  9  'x+1/2, y+1/2, z'
  10  '-x+1/2, -y+1/2, -z'
  11  '-x+1/2, -y+1/2, z+1/2'
  12  'x+1/2, y+1/2, -z+1/2'
  13  'x+1/2, -y+1/2, -z'
  14  '-x+1/2, y+1/2, z'
  15  '-x+1/2, y+1/2, -z+1/2'
  16  'x+1/2, -y+1/2, z+1/2'
loop_
 _atom_site_type_symbol
 _atom_site_label
 _atom_site_symmetry_multiplicity
 _atom_site_fract_x
 _atom_site_fract_y
 _atom_site_fract_z
 _atom_site_occupancy
  U  U0  4  0.00000000  0.03137496  0.75000000  1
  U  U1  4  0.00000000  0.28125272  0.75000000  1
  U  U2  4  0.00000000  0.34376396  0.25000000  1
  U  U3  4  0.00000000  0.40641645  0.75000000  1
  Ge  Ge4  8  0.15587948  0.15624212  0.75000000  1
  Ge  Ge5  8  0.15600986  0.21869695  0.25000000  1
  Ge  Ge6  8  0.15631729  0.90605715  0.75000000  1
  Ge  Ge7  8  0.15641450  0.46896057  0.25000000  1
  Ge  Ge8  4  0.00000000  0.01043167  0.25000000  1
  Ge  Ge9  4  0.00000000  0.05205895  0.25000000  1
  Ge  Ge10  4  0.00000000  0.07293720  0.75000000  1
  Ge  Ge11  4  0.00000000  0.11458358  0.75000000  1
  Ge  Ge12  4  0.00000000  0.13544702  0.25000000  1
  Ge  Ge13  4  0.00000000  0.17708859  0.25000000  1
  Ge  Ge14  4  0.00000000  0.19790231  0.75000000  1
  Ge  Ge15  4  0.00000000  0.23995423  0.75000000  1
  Ge  Ge16  4  0.00000000  0.26073949  0.25000000  1
  Ge  Ge17  4  0.00000000  0.30204964  0.25000000  1
  Ge  Ge18  4  0.00000000  0.32289984  0.75000000  1
  Ge  Ge19  4  0.00000000  0.36462812  0.75000000  1
  Ge  Ge20  4  0.00000000  0.38548663  0.25000000  1
  Ge  Ge21  4  0.00000000  0.42706040  0.25000000  1
  Ge  Ge22  4  0.00000000  0.44787373  0.75000000  1
  Ge  Ge23  4  0.00000000  0.48962447  0.75000000  1
  Ru  Ru24  16  0.24646360  0.18752072  0.00005552  1
  Ru  Ru25  16  0.24657887  0.12499226  0.00001041  1
  Ru  Ru26  16  0.24680063  0.93754070  0.00042163  1
  Ru  Ru27  8  0.24539003  0.03123284  0.25000000  1
  Ru  Ru28  8  0.24621753  0.78126330  0.25000000  1
  Ru  Ru29  8  0.24664490  0.15625412  0.25000000  1
  Ru  Ru30  8  0.24766937  0.00000000  0.00000000  1
  Ru  Ru31  8  0.24848106  0.09376599  0.75000000  1
  Ru  Ru32  8  0.25000000  0.25000000  0.00000000  1
