# generated using pymatgen
data_U(ZnGe)6
_symmetry_space_group_name_H-M   Cmcm
_cell_length_a   8.41564942
_cell_length_b   80.64667332
_cell_length_c   5.20821095
_cell_angle_alpha   90.00000000
_cell_angle_beta   90.00000000
_cell_angle_gamma   90.00000000
_symmetry_Int_Tables_number   63
_chemical_formula_structural   U(ZnGe)6
_chemical_formula_sum   'U16 Zn96 Ge96'
_cell_volume   3534.78219350
_cell_formula_units_Z   16
loop_
 _symmetry_equiv_pos_site_id
 _symmetry_equiv_pos_as_xyz
  1  'x, y, z'
  2  '-x, -y, -z'
  3  '-x, -y, z+1/2'
  4  'x, y, -z+1/2'
  5  'x, -y, -z'
  6  '-x, y, z'
  7  '-x, y, -z+1/2'
  8  'x, -y, z+1/2'
  9  'x+1/2, y+1/2, z'
  10  '-x+1/2, -y+1/2, -z'
  11  '-x+1/2, -y+1/2, z+1/2'
  12  'x+1/2, y+1/2, -z+1/2'
  13  'x+1/2, -y+1/2, -z'
  14  '-x+1/2, y+1/2, z'
  15  '-x+1/2, y+1/2, -z+1/2'
  16  'x+1/2, -y+1/2, z+1/2'
loop_
 _atom_site_type_symbol
 _atom_site_label
 _atom_site_symmetry_multiplicity
 _atom_site_fract_x
 _atom_site_fract_y
 _atom_site_fract_z
 _atom_site_occupancy
  U  U0  4  0.00000000  0.03128603  0.25000000  1
  U  U1  4  0.00000000  0.28148588  0.25000000  1
  U  U2  4  0.00000000  0.34377985  0.75000000  1
  U  U3  4  0.00000000  0.40619870  0.25000000  1
  Zn  Zn4  16  0.24474611  0.06246963  0.50041026  1
  Zn  Zn5  16  0.24832832  0.37501016  0.00043572  1
  Zn  Zn6  16  0.24859842  0.31247278  0.00058893  1
  Zn  Zn7  8  0.23639834  0.00000000  0.00000000  1
  Zn  Zn8  8  0.23827773  0.03139102  0.75000000  1
  Zn  Zn9  8  0.24761842  0.21891475  0.25000000  1
  Zn  Zn10  8  0.24953094  0.34375325  0.25000000  1
  Zn  Zn11  8  0.24960099  0.09361594  0.25000000  1
  Zn  Zn12  8  0.25000000  0.25000000  0.00000000  1
  Ge  Ge13  8  0.14379556  0.46962801  0.75000000  1
  Ge  Ge14  8  0.14482537  0.21868390  0.75000000  1
  Ge  Ge15  8  0.14548253  0.09395790  0.75000000  1
  Ge  Ge16  8  0.14634517  0.15619644  0.25000000  1
  Ge  Ge17  4  0.00000000  0.01047945  0.75000000  1
  Ge  Ge18  4  0.00000000  0.05017078  0.75000000  1
  Ge  Ge19  4  0.00000000  0.07015589  0.25000000  1
  Ge  Ge20  4  0.00000000  0.11476387  0.25000000  1
  Ge  Ge21  4  0.00000000  0.13499624  0.75000000  1
  Ge  Ge22  4  0.00000000  0.17754270  0.75000000  1
  Ge  Ge23  4  0.00000000  0.19781835  0.25000000  1
  Ge  Ge24  4  0.00000000  0.24278120  0.25000000  1
  Ge  Ge25  4  0.00000000  0.26306960  0.75000000  1
  Ge  Ge26  4  0.00000000  0.30224489  0.75000000  1
  Ge  Ge27  4  0.00000000  0.32305840  0.25000000  1
  Ge  Ge28  4  0.00000000  0.36445797  0.25000000  1
  Ge  Ge29  4  0.00000000  0.38541215  0.75000000  1
  Ge  Ge30  4  0.00000000  0.42497260  0.75000000  1
  Ge  Ge31  4  0.00000000  0.44515700  0.25000000  1
  Ge  Ge32  4  0.00000000  0.49037258  0.25000000  1
