# generated using pymatgen
data_U(SiMo)6
_symmetry_space_group_name_H-M   Cmmm
_cell_length_a   5.29797180
_cell_length_b   45.98918118
_cell_length_c   8.54938876
_cell_angle_alpha   90.00000000
_cell_angle_beta   90.00000000
_cell_angle_gamma   90.00000000
_symmetry_Int_Tables_number   65
_chemical_formula_structural   U(SiMo)6
_chemical_formula_sum   'U10 Si60 Mo60'
_cell_volume   2083.05331338
_cell_formula_units_Z   10
loop_
 _symmetry_equiv_pos_site_id
 _symmetry_equiv_pos_as_xyz
  1  'x, y, z'
  2  '-x, -y, -z'
  3  '-x, -y, z'
  4  'x, y, -z'
  5  'x, -y, -z'
  6  '-x, y, z'
  7  '-x, y, -z'
  8  'x, -y, z'
  9  'x+1/2, y+1/2, z'
  10  '-x+1/2, -y+1/2, -z'
  11  '-x+1/2, -y+1/2, z'
  12  'x+1/2, y+1/2, -z'
  13  'x+1/2, -y+1/2, -z'
  14  '-x+1/2, y+1/2, z'
  15  '-x+1/2, y+1/2, -z'
  16  'x+1/2, -y+1/2, z'
loop_
 _atom_site_type_symbol
 _atom_site_label
 _atom_site_symmetry_multiplicity
 _atom_site_fract_x
 _atom_site_fract_y
 _atom_site_fract_z
 _atom_site_occupancy
  U  U0  4  0.00000000  0.20014586  0.00000000  1
  U  U1  4  0.00000000  0.40014563  0.50000000  1
  U  U2  2  0.00000000  0.00000000  0.50000000  1
  Si  Si3  8  0.00000000  0.20033377  0.33163428  1
  Si  Si4  8  0.00000000  0.40035130  0.16839819  1
  Si  Si5  4  0.00000000  0.00000000  0.16750681  1
  Si  Si6  4  0.00000000  0.06669606  0.50000000  1
  Si  Si7  4  0.00000000  0.06691257  0.00000000  1
  Si  Si8  4  0.00000000  0.13159071  0.50000000  1
  Si  Si9  4  0.00000000  0.13477909  0.00000000  1
  Si  Si10  4  0.00000000  0.26673931  0.00000000  1
  Si  Si11  4  0.00000000  0.26688183  0.50000000  1
  Si  Si12  4  0.00000000  0.33158929  0.00000000  1
  Si  Si13  4  0.00000000  0.33477880  0.50000000  1
  Si  Si14  4  0.00000000  0.46672691  0.50000000  1
  Si  Si15  4  0.00000000  0.46683291  0.00000000  1
  Mo  Mo16  16  0.24989634  0.04998513  0.24870159  1
  Mo  Mo17  16  0.24999784  0.64999787  0.25000363  1
  Mo  Mo18  8  0.00000000  0.10002230  0.24795561  1
  Mo  Mo19  8  0.00000000  0.30003399  0.25202409  1
  Mo  Mo20  8  0.25000000  0.25000000  0.25129357  1
  Mo  Mo21  4  0.00000000  0.50000000  0.24900290  1
