# generated using pymatgen
data_U(PbW)6
_symmetry_space_group_name_H-M   C2/m
_cell_length_a   46.73547049
_cell_length_b   5.36267626
_cell_length_c   11.73353348
_cell_angle_alpha   90.00000000
_cell_angle_beta   90.36246224
_cell_angle_gamma   90.00000000
_symmetry_Int_Tables_number   12
_chemical_formula_structural   U(PbW)6
_chemical_formula_sum   'U10 Pb60 W60'
_cell_volume   2940.68377603
_cell_formula_units_Z   10
loop_
 _symmetry_equiv_pos_site_id
 _symmetry_equiv_pos_as_xyz
  1  'x, y, z'
  2  '-x, -y, -z'
  3  '-x, y, -z'
  4  'x, -y, z'
  5  'x+1/2, y+1/2, z'
  6  '-x+1/2, -y+1/2, -z'
  7  '-x+1/2, y+1/2, -z'
  8  'x+1/2, -y+1/2, z'
loop_
 _atom_site_type_symbol
 _atom_site_label
 _atom_site_symmetry_multiplicity
 _atom_site_fract_x
 _atom_site_fract_y
 _atom_site_fract_z
 _atom_site_occupancy
  U  U0  4  0.10056799  0.50000000  0.00084097  1
  U  U1  4  0.19955270  0.00000000  0.49910696  1
  U  U2  2  0.00000000  0.00000000  0.00000000  1
  Pb  Pb3  4  0.00002961  0.00000000  0.31900693  1
  Pb  Pb4  4  0.03305926  0.50000000  0.49995043  1
  Pb  Pb5  4  0.03353311  0.50000000  0.99994100  1
  Pb  Pb6  4  0.06603074  0.00000000  0.50011332  1
  Pb  Pb7  4  0.06703626  0.00000000  0.99990626  1
  Pb  Pb8  4  0.09840186  0.50000000  0.67964008  1
  Pb  Pb9  4  0.09850491  0.50000000  0.32066752  1
  Pb  Pb10  4  0.13208461  0.00000000  0.50172515  1
  Pb  Pb11  4  0.13543612  0.00000000  0.00035366  1
  Pb  Pb12  4  0.16459136  0.50000000  0.49962531  1
  Pb  Pb13  4  0.16788715  0.50000000  0.99825216  1
  Pb  Pb14  4  0.20141481  0.00000000  0.17929460  1
  Pb  Pb15  4  0.20152860  0.00000000  0.82039869  1
  Pb  Pb16  4  0.23311414  0.50000000  0.50005620  1
  Pb  Pb17  4  0.23371412  0.50000000  0.99981111  1
  W  W18  8  0.04983095  0.24837804  0.21226852  1
  W  W19  8  0.04992762  0.24874009  0.78773115  1
  W  W20  8  0.14997182  0.25006748  0.25001493  1
  W  W21  8  0.14997354  0.25006505  0.75002393  1
  W  W22  8  0.24995060  0.24987114  0.71151204  1
  W  W23  4  0.00001479  0.50000000  0.21224236  1
  W  W24  4  0.10077318  0.00000000  0.78990893  1
  W  W25  4  0.10078703  0.00000000  0.21023839  1
  W  W26  4  0.19918535  0.50000000  0.28981720  1
  W  W27  4  0.19920124  0.50000000  0.71003657  1
