# generated using pymatgen
data_U(GePd)6
_symmetry_space_group_name_H-M   C2/c
_cell_length_a   8.40680165
_cell_length_b   76.88715937
_cell_length_c   5.60522636
_cell_angle_alpha   90.00000000
_cell_angle_beta   95.61697697
_cell_angle_gamma   90.00000000
_symmetry_Int_Tables_number   15
_chemical_formula_structural   U(GePd)6
_chemical_formula_sum   'U16 Ge96 Pd96'
_cell_volume   3605.68231665
_cell_formula_units_Z   16
loop_
 _symmetry_equiv_pos_site_id
 _symmetry_equiv_pos_as_xyz
  1  'x, y, z'
  2  '-x, -y, -z'
  3  '-x, y, -z+1/2'
  4  'x, -y, z+1/2'
  5  'x+1/2, y+1/2, z'
  6  '-x+1/2, -y+1/2, -z'
  7  '-x+1/2, y+1/2, -z+1/2'
  8  'x+1/2, -y+1/2, z+1/2'
loop_
 _atom_site_type_symbol
 _atom_site_label
 _atom_site_symmetry_multiplicity
 _atom_site_fract_x
 _atom_site_fract_y
 _atom_site_fract_z
 _atom_site_occupancy
  U  U0  4  0.00000000  0.03166358  0.75000000  1
  U  U1  4  0.00000000  0.28074643  0.75000000  1
  U  U2  4  0.00000000  0.34377998  0.25000000  1
  U  U3  4  0.00000000  0.40664288  0.75000000  1
  Ge  Ge4  8  0.14560108  0.78128551  0.75089655  1
  Ge  Ge5  8  0.14564764  0.09375421  0.25086700  1
  Ge  Ge6  8  0.14567332  0.15622183  0.75102016  1
  Ge  Ge7  8  0.14570570  0.46875042  0.25118701  1
  Ge  Ge8  4  0.00000000  0.01038586  0.25000000  1
  Ge  Ge9  4  0.00000000  0.05205642  0.25000000  1
  Ge  Ge10  4  0.00000000  0.07293456  0.75000000  1
  Ge  Ge11  4  0.00000000  0.11452607  0.75000000  1
  Ge  Ge12  4  0.00000000  0.13545834  0.25000000  1
  Ge  Ge13  4  0.00000000  0.17704871  0.25000000  1
  Ge  Ge14  4  0.00000000  0.19787820  0.75000000  1
  Ge  Ge15  4  0.00000000  0.23994985  0.75000000  1
  Ge  Ge16  4  0.00000000  0.26074150  0.25000000  1
  Ge  Ge17  4  0.00000000  0.30203298  0.25000000  1
  Ge  Ge18  4  0.00000000  0.32292429  0.75000000  1
  Ge  Ge19  4  0.00000000  0.36457307  0.75000000  1
  Ge  Ge20  4  0.00000000  0.38544725  0.25000000  1
  Ge  Ge21  4  0.00000000  0.42691547  0.25000000  1
  Ge  Ge22  4  0.00000000  0.44772853  0.75000000  1
  Ge  Ge23  4  0.00000000  0.48960360  0.75000000  1
  Pd  Pd24  8  0.24174007  0.21880412  0.75159403  1
  Pd  Pd25  8  0.24289741  0.15624261  0.25159263  1
  Pd  Pd26  8  0.24311969  0.12504546  0.50091614  1
  Pd  Pd27  8  0.24312429  0.18744447  0.50095195  1
  Pd  Pd28  8  0.24313983  0.12495329  0.00047903  1
  Pd  Pd29  8  0.24317980  0.18755391  0.00054091  1
  Pd  Pd30  8  0.24496439  0.09367423  0.75162223  1
  Pd  Pd31  8  0.24535426  0.06241399  0.50089634  1
  Pd  Pd32  8  0.24552705  0.06243229  0.00061532  1
  Pd  Pd33  8  0.24572592  0.03120264  0.24951912  1
  Pd  Pd34  8  0.24806359  0.00009097  0.00049943  1
  Pd  Pd35  4  0.25000000  0.25000000  0.00000000  1
  Pd  Pd36  4  0.25000000  0.25000000  0.50000000  1
