# generated using pymatgen
data_U(GeAu)6
_symmetry_space_group_name_H-M   P-1
_cell_length_a   5.78021935
_cell_length_b   8.61236110
_cell_length_c   25.43151512
_cell_angle_alpha   93.97268543
_cell_angle_beta   95.90454924
_cell_angle_gamma   95.48313414
_symmetry_Int_Tables_number   2
_chemical_formula_structural   U(GeAu)6
_chemical_formula_sum   'U5 Ge30 Au30'
_cell_volume   1249.52856683
_cell_formula_units_Z   5
loop_
 _symmetry_equiv_pos_site_id
 _symmetry_equiv_pos_as_xyz
  1  'x, y, z'
  2  '-x, -y, -z'
loop_
 _atom_site_type_symbol
 _atom_site_label
 _atom_site_symmetry_multiplicity
 _atom_site_fract_x
 _atom_site_fract_y
 _atom_site_fract_z
 _atom_site_occupancy
  U  U0  2  0.19994609  0.00094517  0.39944328  1
  U  U1  2  0.39997488  0.50097269  0.79944829  1
  U  U2  1  0.00000000  0.50000000  0.00000000  1
  Ge  Ge3  2  0.00314789  0.14734679  0.00065961  1
  Ge  Ge4  2  0.06778156  0.50199904  0.13374351  1
  Ge  Ge5  2  0.07525100  0.00172404  0.13354551  1
  Ge  Ge6  2  0.12630699  0.50017673  0.25987571  1
  Ge  Ge7  2  0.12967743  0.99803485  0.27264792  1
  Ge  Ge8  2  0.19570344  0.35479452  0.39922062  1
  Ge  Ge9  2  0.20452397  0.64663283  0.40123567  1
  Ge  Ge10  2  0.26770599  0.00201802  0.53390407  1
  Ge  Ge11  2  0.27523978  0.50173339  0.53339242  1
  Ge  Ge12  2  0.32631134  0.00021992  0.65984119  1
  Ge  Ge13  2  0.32968563  0.49802961  0.67268139  1
  Ge  Ge14  2  0.39578826  0.85481181  0.79911037  1
  Ge  Ge15  2  0.40444562  0.14660867  0.80115981  1
  Ge  Ge16  2  0.46823378  0.50174776  0.93392622  1
  Ge  Ge17  2  0.47543737  0.00220831  0.93430770  1
  Au  Au18  2  0.00278640  0.25206422  0.50057395  1
  Au  Au19  2  0.09830481  0.24633991  0.19932970  1
  Au  Au20  2  0.10003447  0.25000305  0.70002556  1
  Au  Au21  2  0.10003894  0.74997385  0.70002500  1
  Au  Au22  2  0.10186365  0.75187873  0.20036274  1
  Au  Au23  2  0.19669528  0.24806022  0.89965242  1
  Au  Au24  2  0.20312898  0.75198500  0.90072274  1
  Au  Au25  2  0.29788602  0.24648845  0.09993718  1
  Au  Au26  2  0.29825971  0.74632681  0.59935182  1
  Au  Au27  2  0.30147690  0.75383964  0.09980722  1
  Au  Au28  2  0.30175779  0.25171838  0.60038608  1
  Au  Au29  2  0.39999163  0.74998633  0.29999492  1
  Au  Au30  2  0.40001312  0.25000285  0.29998463  1
  Au  Au31  2  0.49847432  0.74602308  0.50005048  1
  Au  Au32  2  0.49868324  0.24770036  0.99953314  1
