# generated using pymatgen
data_Hf6USi6
_symmetry_space_group_name_H-M   Cmmm
_cell_length_a   5.77254588
_cell_length_b   50.16546450
_cell_length_c   8.81174972
_cell_angle_alpha   90.00000000
_cell_angle_beta   90.00000000
_cell_angle_gamma   90.00000000
_symmetry_Int_Tables_number   65
_chemical_formula_structural   Hf6USi6
_chemical_formula_sum   'Hf60 U10 Si60'
_cell_volume   2551.72803039
_cell_formula_units_Z   10
loop_
 _symmetry_equiv_pos_site_id
 _symmetry_equiv_pos_as_xyz
  1  'x, y, z'
  2  '-x, -y, -z'
  3  '-x, -y, z'
  4  'x, y, -z'
  5  'x, -y, -z'
  6  '-x, y, z'
  7  '-x, y, -z'
  8  'x, -y, z'
  9  'x+1/2, y+1/2, z'
  10  '-x+1/2, -y+1/2, -z'
  11  '-x+1/2, -y+1/2, z'
  12  'x+1/2, y+1/2, -z'
  13  'x+1/2, -y+1/2, -z'
  14  '-x+1/2, y+1/2, z'
  15  '-x+1/2, y+1/2, -z'
  16  'x+1/2, -y+1/2, z'
loop_
 _atom_site_type_symbol
 _atom_site_label
 _atom_site_symmetry_multiplicity
 _atom_site_fract_x
 _atom_site_fract_y
 _atom_site_fract_z
 _atom_site_occupancy
  Hf  Hf0  16  0.24975666  0.95003122  0.25134884  1
  Hf  Hf1  16  0.24999641  0.35000556  0.25001734  1
  Hf  Hf2  8  0.00000000  0.19997449  0.23846872  1
  Hf  Hf3  8  0.00000000  0.40002474  0.26102337  1
  Hf  Hf4  8  0.25000000  0.25000000  0.25005734  1
  Hf  Hf5  4  0.00000000  0.00000000  0.25179722  1
  U  U6  4  0.00000000  0.09987849  0.00000000  1
  U  U7  4  0.00000000  0.29989318  0.50000000  1
  U  U8  2  0.00000000  0.50000000  0.00000000  1
  Si  Si9  8  0.00000000  0.10019559  0.31889434  1
  Si  Si10  8  0.00000000  0.30023015  0.18126709  1
  Si  Si11  4  0.00000000  0.03309394  0.00000000  1
  Si  Si12  4  0.00000000  0.03314242  0.50000000  1
  Si  Si13  4  0.00000000  0.16333661  0.00000000  1
  Si  Si14  4  0.00000000  0.17017825  0.50000000  1
  Si  Si15  4  0.00000000  0.23143871  0.50000000  1
  Si  Si16  4  0.00000000  0.23499725  0.00000000  1
  Si  Si17  4  0.00000000  0.36333728  0.50000000  1
  Si  Si18  4  0.00000000  0.37016060  0.00000000  1
  Si  Si19  4  0.00000000  0.43181848  0.00000000  1
  Si  Si20  4  0.00000000  0.43477521  0.50000000  1
  Si  Si21  4  0.00000000  0.50000000  0.31760803  1
