# generated using pymatgen
data_U(SiMo)6
_symmetry_space_group_name_H-M   Cmcm
_cell_length_a   8.53135254
_cell_length_b   36.80610023
_cell_length_c   5.29687021
_cell_angle_alpha   90.00000000
_cell_angle_beta   90.00000000
_cell_angle_gamma   90.00000000
_symmetry_Int_Tables_number   63
_chemical_formula_structural   U(SiMo)6
_chemical_formula_sum   'U8 Si48 Mo48'
_cell_volume   1663.24805572
_cell_formula_units_Z   8
loop_
 _symmetry_equiv_pos_site_id
 _symmetry_equiv_pos_as_xyz
  1  'x, y, z'
  2  '-x, -y, -z'
  3  '-x, -y, z+1/2'
  4  'x, y, -z+1/2'
  5  'x, -y, -z'
  6  '-x, y, z'
  7  '-x, y, -z+1/2'
  8  'x, -y, z+1/2'
  9  'x+1/2, y+1/2, z'
  10  '-x+1/2, -y+1/2, -z'
  11  '-x+1/2, -y+1/2, z+1/2'
  12  'x+1/2, y+1/2, -z+1/2'
  13  'x+1/2, -y+1/2, -z'
  14  '-x+1/2, y+1/2, z'
  15  '-x+1/2, y+1/2, -z+1/2'
  16  'x+1/2, -y+1/2, z+1/2'
loop_
 _atom_site_type_symbol
 _atom_site_label
 _atom_site_symmetry_multiplicity
 _atom_site_fract_x
 _atom_site_fract_y
 _atom_site_fract_z
 _atom_site_occupancy
  U  U0  4  0.00000000  0.06334031  0.25000000  1
  U  U1  4  0.00000000  0.18805810  0.75000000  1
  Si  Si2  8  0.16648849  0.31316685  0.25000000  1
  Si  Si3  8  0.16780914  0.43933335  0.75000000  1
  Si  Si4  4  0.00000000  0.02138707  0.75000000  1
  Si  Si5  4  0.00000000  0.10514820  0.75000000  1
  Si  Si6  4  0.00000000  0.14612793  0.25000000  1
  Si  Si7  4  0.00000000  0.22743150  0.25000000  1
  Si  Si8  4  0.00000000  0.26990738  0.75000000  1
  Si  Si9  4  0.00000000  0.35336464  0.75000000  1
  Si  Si10  4  0.00000000  0.39631827  0.25000000  1
  Si  Si11  4  0.00000000  0.47896631  0.25000000  1
  Mo  Mo12  16  0.24680864  0.37510060  0.50055128  1
  Mo  Mo13  8  0.24886254  0.31251656  0.75000000  1
  Mo  Mo14  8  0.24909341  0.43734759  0.25000000  1
  Mo  Mo15  8  0.24986279  0.00000000  0.00000000  1
  Mo  Mo16  8  0.25000000  0.25000000  0.00000000  1
