# generated using pymatgen
data_U(CrSn)6
_symmetry_space_group_name_H-M   Cmcm
_cell_length_a   9.32273164
_cell_length_b   18.49414358
_cell_length_c   5.33541930
_cell_angle_alpha   90.00000000
_cell_angle_beta   90.00000000
_cell_angle_gamma   90.00000000
_symmetry_Int_Tables_number   63
_chemical_formula_structural   U(CrSn)6
_chemical_formula_sum   'U4 Cr24 Sn24'
_cell_volume   919.91132074
_cell_formula_units_Z   4
loop_
 _symmetry_equiv_pos_site_id
 _symmetry_equiv_pos_as_xyz
  1  'x, y, z'
  2  '-x, -y, -z'
  3  '-x, -y, z+1/2'
  4  'x, y, -z+1/2'
  5  'x, -y, -z'
  6  '-x, y, z'
  7  '-x, y, -z+1/2'
  8  'x, -y, z+1/2'
  9  'x+1/2, y+1/2, z'
  10  '-x+1/2, -y+1/2, -z'
  11  '-x+1/2, -y+1/2, z+1/2'
  12  'x+1/2, y+1/2, -z+1/2'
  13  'x+1/2, -y+1/2, -z'
  14  '-x+1/2, y+1/2, z'
  15  '-x+1/2, y+1/2, -z+1/2'
  16  'x+1/2, -y+1/2, z+1/2'
loop_
 _atom_site_type_symbol
 _atom_site_label
 _atom_site_symmetry_multiplicity
 _atom_site_fract_x
 _atom_site_fract_y
 _atom_site_fract_z
 _atom_site_occupancy
  U  U0  4  0.00000000  0.37387239  0.25000000  1
  Cr  Cr1  8  0.24572128  0.37487731  0.75000000  1
  Cr  Cr2  8  0.24885213  0.50000000  0.00000000  1
  Cr  Cr3  8  0.25000000  0.25000000  0.00000000  1
  Sn  Sn4  8  0.16076286  0.87548980  0.25000000  1
  Sn  Sn5  4  0.00000000  0.04097183  0.25000000  1
  Sn  Sn6  4  0.00000000  0.20374307  0.25000000  1
  Sn  Sn7  4  0.00000000  0.28744567  0.75000000  1
  Sn  Sn8  4  0.00000000  0.45816571  0.75000000  1
