# generated using pymatgen
data_U(VGe)6
_symmetry_space_group_name_H-M   Cmcm
_cell_length_a   8.44043896
_cell_length_b   72.79938848
_cell_length_c   5.25245470
_cell_angle_alpha   90.00000000
_cell_angle_beta   90.00000000
_cell_angle_gamma   90.00000000
_symmetry_Int_Tables_number   63
_chemical_formula_structural   U(VGe)6
_chemical_formula_sum   'U16 V96 Ge96'
_cell_volume   3227.41698488
_cell_formula_units_Z   16
loop_
 _symmetry_equiv_pos_site_id
 _symmetry_equiv_pos_as_xyz
  1  'x, y, z'
  2  '-x, -y, -z'
  3  '-x, -y, z+1/2'
  4  'x, y, -z+1/2'
  5  'x, -y, -z'
  6  '-x, y, z'
  7  '-x, y, -z+1/2'
  8  'x, -y, z+1/2'
  9  'x+1/2, y+1/2, z'
  10  '-x+1/2, -y+1/2, -z'
  11  '-x+1/2, -y+1/2, z+1/2'
  12  'x+1/2, y+1/2, -z+1/2'
  13  'x+1/2, -y+1/2, -z'
  14  '-x+1/2, y+1/2, z'
  15  '-x+1/2, y+1/2, -z+1/2'
  16  'x+1/2, -y+1/2, z+1/2'
loop_
 _atom_site_type_symbol
 _atom_site_label
 _atom_site_symmetry_multiplicity
 _atom_site_fract_x
 _atom_site_fract_y
 _atom_site_fract_z
 _atom_site_occupancy
  U  U0  4  0.00000000  0.09361701  0.75000000  1
  U  U1  4  0.00000000  0.15623568  0.25000000  1
  U  U2  4  0.00000000  0.21870298  0.75000000  1
  U  U3  4  0.00000000  0.46858269  0.75000000  1
  V  V4  16  0.24738700  0.31248745  0.50000719  1
  V  V5  16  0.24748560  0.37499823  0.50001816  1
  V  V6  16  0.24827125  0.43746861  0.50000598  1
  V  V7  8  0.24704274  0.28121650  0.75000000  1
  V  V8  8  0.24734804  0.34374670  0.25000000  1
  V  V9  8  0.24776252  0.46872435  0.25000000  1
  V  V10  8  0.24846671  0.40623318  0.75000000  1
  V  V11  8  0.24847429  0.50000000  0.00000000  1
  V  V12  8  0.25000000  0.25000000  0.00000000  1
  Ge  Ge13  8  0.16074021  0.34376658  0.75000000  1
  Ge  Ge14  8  0.16084739  0.40611850  0.25000000  1
  Ge  Ge15  8  0.16114533  0.28124975  0.25000000  1
  Ge  Ge16  8  0.16257747  0.03115113  0.25000000  1
  Ge  Ge17  4  0.00000000  0.01028198  0.75000000  1
  Ge  Ge18  4  0.00000000  0.05208297  0.75000000  1
  Ge  Ge19  4  0.00000000  0.07292757  0.25000000  1
  Ge  Ge20  4  0.00000000  0.11450415  0.25000000  1
  Ge  Ge21  4  0.00000000  0.13537337  0.75000000  1
  Ge  Ge22  4  0.00000000  0.17707849  0.75000000  1
  Ge  Ge23  4  0.00000000  0.19796014  0.25000000  1
  Ge  Ge24  4  0.00000000  0.23927582  0.25000000  1
  Ge  Ge25  4  0.00000000  0.25998562  0.75000000  1
  Ge  Ge26  4  0.00000000  0.30220798  0.75000000  1
  Ge  Ge27  4  0.00000000  0.32290106  0.25000000  1
  Ge  Ge28  4  0.00000000  0.36459832  0.25000000  1
  Ge  Ge29  4  0.00000000  0.38535657  0.75000000  1
  Ge  Ge30  4  0.00000000  0.42704255  0.75000000  1
  Ge  Ge31  4  0.00000000  0.44785517  0.25000000  1
  Ge  Ge32  4  0.00000000  0.48955086  0.25000000  1
