# generated using pymatgen
data_U(TiGe)6
_symmetry_space_group_name_H-M   Cmcm
_cell_length_a   8.89538950
_cell_length_b   76.96446456
_cell_length_c   5.55601571
_cell_angle_alpha   90.00000000
_cell_angle_beta   90.00000000
_cell_angle_gamma   90.00000000
_symmetry_Int_Tables_number   63
_chemical_formula_structural   U(TiGe)6
_chemical_formula_sum   'U16 Ti96 Ge96'
_cell_volume   3803.80886730
_cell_formula_units_Z   16
loop_
 _symmetry_equiv_pos_site_id
 _symmetry_equiv_pos_as_xyz
  1  'x, y, z'
  2  '-x, -y, -z'
  3  '-x, -y, z+1/2'
  4  'x, y, -z+1/2'
  5  'x, -y, -z'
  6  '-x, y, z'
  7  '-x, y, -z+1/2'
  8  'x, -y, z+1/2'
  9  'x+1/2, y+1/2, z'
  10  '-x+1/2, -y+1/2, -z'
  11  '-x+1/2, -y+1/2, z+1/2'
  12  'x+1/2, y+1/2, -z+1/2'
  13  'x+1/2, -y+1/2, -z'
  14  '-x+1/2, y+1/2, z'
  15  '-x+1/2, y+1/2, -z+1/2'
  16  'x+1/2, -y+1/2, z+1/2'
loop_
 _atom_site_type_symbol
 _atom_site_label
 _atom_site_symmetry_multiplicity
 _atom_site_fract_x
 _atom_site_fract_y
 _atom_site_fract_z
 _atom_site_occupancy
  U  U0  4  0.00000000  0.09398495  0.25000000  1
  U  U1  4  0.00000000  0.15623722  0.75000000  1
  U  U2  4  0.00000000  0.21833814  0.25000000  1
  U  U3  4  0.00000000  0.46890475  0.25000000  1
  Ti  Ti4  16  0.24291941  0.31247030  0.50025282  1
  Ti  Ti5  16  0.24331585  0.37500469  0.50010516  1
  Ti  Ti6  16  0.24706490  0.43751306  0.00031650  1
  Ti  Ti7  8  0.23899148  0.28127383  0.25000000  1
  Ti  Ti8  8  0.24084138  0.40620665  0.25000000  1
  Ti  Ti9  8  0.24337792  0.34374836  0.75000000  1
  Ti  Ti10  8  0.24691063  0.96875519  0.75000000  1
  Ti  Ti11  8  0.24932560  0.00000000  0.00000000  1
  Ti  Ti12  8  0.25000000  0.25000000  0.00000000  1
  Ge  Ge13  8  0.18092739  0.40629257  0.75000000  1
  Ge  Ge14  8  0.18107846  0.71888177  0.25000000  1
  Ge  Ge15  8  0.18141631  0.34374556  0.25000000  1
  Ge  Ge16  8  0.18254241  0.96874017  0.25000000  1
  Ge  Ge17  4  0.00000000  0.01031809  0.25000000  1
  Ge  Ge18  4  0.00000000  0.05368772  0.25000000  1
  Ge  Ge19  4  0.00000000  0.07447143  0.75000000  1
  Ge  Ge20  4  0.00000000  0.11454739  0.75000000  1
  Ge  Ge21  4  0.00000000  0.13541554  0.25000000  1
  Ge  Ge22  4  0.00000000  0.17709061  0.25000000  1
  Ge  Ge23  4  0.00000000  0.19798502  0.75000000  1
  Ge  Ge24  4  0.00000000  0.23751117  0.75000000  1
  Ge  Ge25  4  0.00000000  0.25832009  0.25000000  1
  Ge  Ge26  4  0.00000000  0.30206236  0.25000000  1
  Ge  Ge27  4  0.00000000  0.32291302  0.75000000  1
  Ge  Ge28  4  0.00000000  0.36460267  0.75000000  1
  Ge  Ge29  4  0.00000000  0.38539802  0.25000000  1
  Ge  Ge30  4  0.00000000  0.42871495  0.25000000  1
  Ge  Ge31  4  0.00000000  0.44953412  0.75000000  1
  Ge  Ge32  4  0.00000000  0.48958658  0.75000000  1
