# generated using pymatgen
data_U(OsPb)6
_symmetry_space_group_name_H-M   Pm
_cell_length_a   10.00785864
_cell_length_b   5.27337231
_cell_length_c   40.72837340
_cell_angle_alpha   90.00000000
_cell_angle_beta   90.27819736
_cell_angle_gamma   90.00000000
_symmetry_Int_Tables_number   6
_chemical_formula_structural   U(OsPb)6
_chemical_formula_sum   'U8 Os48 Pb48'
_cell_volume   2149.42127402
_cell_formula_units_Z   8
loop_
 _symmetry_equiv_pos_site_id
 _symmetry_equiv_pos_as_xyz
  1  'x, y, z'
  2  'x, -y, z'
loop_
 _atom_site_type_symbol
 _atom_site_label
 _atom_site_symmetry_multiplicity
 _atom_site_fract_x
 _atom_site_fract_y
 _atom_site_fract_z
 _atom_site_occupancy
  U  U0  1  0.00001259  0.00000000  0.06570870  1
  U  U1  1  0.00004501  0.50000000  0.19328455  1
  U  U2  1  0.49985203  0.00000000  0.56572840  1
  U  U3  1  0.49998625  0.00000000  0.30673318  1
  U  U4  1  0.50002061  0.50000000  0.69328845  1
  U  U5  1  0.50012716  0.50000000  0.43437507  1
  U  U6  1  0.99996376  0.00000000  0.80673489  1
  U  U7  1  0.99998834  0.50000000  0.93435332  1
  Os  Os8  2  0.24064667  0.25383787  0.99995164  1
  Os  Os9  2  0.24196057  0.23360836  0.12371476  1
  Os  Os10  2  0.24202413  0.26619406  0.87625521  1
  Os  Os11  2  0.24991645  0.25146449  0.24999652  1
  Os  Os12  2  0.25009379  0.25164249  0.74999344  1
  Os  Os13  2  0.25797466  0.23375840  0.62374326  1
  Os  Os14  2  0.25804367  0.26634082  0.37628527  1
  Os  Os15  2  0.25935531  0.24936534  0.50000002  1
  Os  Os16  2  0.74062787  0.25893384  0.49988907  1
  Os  Os17  2  0.74197421  0.23357682  0.62371139  1
  Os  Os18  2  0.74201325  0.26616401  0.37625405  1
  Os  Os19  2  0.74992277  0.25124920  0.74999442  1
  Os  Os20  2  0.75004026  0.25061652  0.24999545  1
  Os  Os21  2  0.75796813  0.23374930  0.12374369  1
  Os  Os22  2  0.75804534  0.26633437  0.87628340  1
  Os  Os23  2  0.75934511  0.25290007  0.99997901  1
  Os  Os24  1  0.22498492  0.50000000  0.81108104  1
  Os  Os25  1  0.22504083  0.00000000  0.18897943  1
  Os  Os26  1  0.22560817  0.00000000  0.93668227  1
  Os  Os27  1  0.22564074  0.50000000  0.06343330  1
  Os  Os28  1  0.27438062  0.50000000  0.56335789  1
  Os  Os29  1  0.27442698  0.00000000  0.43660285  1
  Os  Os30  1  0.27495990  0.50000000  0.31100965  1
  Os  Os31  1  0.27501496  0.00000000  0.68891074  1
  Os  Os32  1  0.72497983  0.50000000  0.31108949  1
  Os  Os33  1  0.72504399  0.00000000  0.68898160  1
  Os  Os34  1  0.72563322  0.50000000  0.56344866  1
  Os  Os35  1  0.72567043  0.00000000  0.43675764  1
  Os  Os36  1  0.77436178  0.00000000  0.93661824  1
  Os  Os37  1  0.77439209  0.50000000  0.06337305  1
  Os  Os38  1  0.77496038  0.50000000  0.81101241  1
  Os  Os39  1  0.77501530  0.00000000  0.18891341  1
  Pb  Pb40  1  0.00000251  0.00000000  0.39781091  1
  Pb  Pb41  1  0.00001352  0.50000000  0.10679901  1
  Pb  Pb42  1  0.00003787  0.00000000  0.23268708  1
  Pb  Pb43  1  0.00006540  0.00000000  0.64401964  1
  Pb  Pb44  1  0.00006901  0.50000000  0.85155358  1
  Pb  Pb45  1  0.00007658  0.00000000  0.97831920  1
  Pb  Pb46  1  0.00009631  0.00000000  0.72411238  1
  Pb  Pb47  1  0.17780200  0.00000000  0.56099560  1
  Pb  Pb48  1  0.17790324  0.50000000  0.43901728  1
  Pb  Pb49  1  0.18068797  0.50000000  0.68454882  1
  Pb  Pb50  1  0.18071149  0.00000000  0.31547713  1
  Pb  Pb51  1  0.31930012  0.50000000  0.18451803  1
  Pb  Pb52  1  0.31930061  0.00000000  0.81544495  1
  Pb  Pb53  1  0.32206706  0.00000000  0.06094571  1
  Pb  Pb54  1  0.32219368  0.50000000  0.93898711  1
  Pb  Pb55  1  0.49977448  0.50000000  0.52172129  1
  Pb  Pb56  1  0.49992450  0.50000000  0.85598047  1
  Pb  Pb57  1  0.49992711  0.50000000  0.77589711  1
  Pb  Pb58  1  0.49992713  0.00000000  0.97822258  1
  Pb  Pb59  1  0.49993729  0.00000000  0.64846303  1
  Pb  Pb60  1  0.49996584  0.00000000  0.73268802  1
  Pb  Pb61  1  0.49997839  0.50000000  0.10219588  1
  Pb  Pb62  1  0.49997871  0.50000000  0.60680495  1
  Pb  Pb63  1  0.50002313  0.00000000  0.89780876  1
  Pb  Pb64  1  0.50003256  0.00000000  0.39323223  1
  Pb  Pb65  1  0.50004766  0.50000000  0.26731459  1
  Pb  Pb66  1  0.50004863  0.50000000  0.02177727  1
  Pb  Pb67  1  0.50005806  0.00000000  0.22410985  1
  Pb  Pb68  1  0.50007278  0.50000000  0.35155387  1
  Pb  Pb69  1  0.50007433  0.00000000  0.14402117  1
  Pb  Pb70  1  0.50082837  0.00000000  0.47835508  1
  Pb  Pb71  1  0.67782636  0.50000000  0.93899793  1
  Pb  Pb72  1  0.67789847  0.00000000  0.06096684  1
  Pb  Pb73  1  0.68069265  0.50000000  0.18454944  1
  Pb  Pb74  1  0.68070638  0.00000000  0.81547769  1
  Pb  Pb75  1  0.81929550  0.50000000  0.68451764  1
  Pb  Pb76  1  0.81930698  0.00000000  0.31545058  1
  Pb  Pb77  1  0.82183275  0.00000000  0.56083148  1
  Pb  Pb78  1  0.82225204  0.50000000  0.43899073  1
  Pb  Pb79  1  0.99963313  0.00000000  0.47823321  1
  Pb  Pb80  1  0.99990404  0.50000000  0.52176491  1
  Pb  Pb81  1  0.99990454  0.50000000  0.27589588  1
  Pb  Pb82  1  0.99991919  0.50000000  0.35597957  1
  Pb  Pb83  1  0.99993447  0.00000000  0.14845980  1
  Pb  Pb84  1  0.99997104  0.50000000  0.02172803  1
  Pb  Pb85  1  0.99998626  0.00000000  0.89322353  1
  Pb  Pb86  1  0.99999152  0.50000000  0.60219669  1
  Pb  Pb87  1  0.99999863  0.50000000  0.76731400  1
