# generated using pymatgen
data_U(TiSn)6
_symmetry_space_group_name_H-M   Cmcm
_cell_length_a   9.66447370
_cell_length_b   39.17467084
_cell_length_c   5.63801578
_cell_angle_alpha   90.00000000
_cell_angle_beta   90.00000000
_cell_angle_gamma   90.00000000
_symmetry_Int_Tables_number   63
_chemical_formula_structural   U(TiSn)6
_chemical_formula_sum   'U8 Ti48 Sn48'
_cell_volume   2134.56729823
_cell_formula_units_Z   8
loop_
 _symmetry_equiv_pos_site_id
 _symmetry_equiv_pos_as_xyz
  1  'x, y, z'
  2  '-x, -y, -z'
  3  '-x, -y, z+1/2'
  4  'x, y, -z+1/2'
  5  'x, -y, -z'
  6  '-x, y, z'
  7  '-x, y, -z+1/2'
  8  'x, -y, z+1/2'
  9  'x+1/2, y+1/2, z'
  10  '-x+1/2, -y+1/2, -z'
  11  '-x+1/2, -y+1/2, z+1/2'
  12  'x+1/2, y+1/2, -z+1/2'
  13  'x+1/2, -y+1/2, -z'
  14  '-x+1/2, y+1/2, z'
  15  '-x+1/2, y+1/2, -z+1/2'
  16  'x+1/2, -y+1/2, z+1/2'
loop_
 _atom_site_type_symbol
 _atom_site_label
 _atom_site_symmetry_multiplicity
 _atom_site_fract_x
 _atom_site_fract_y
 _atom_site_fract_z
 _atom_site_occupancy
  U  U0  4  0.00000000  0.06348804  0.75000000  1
  U  U1  4  0.00000000  0.18924835  0.25000000  1
  Ti  Ti2  16  0.24957964  0.37516216  0.00183946  1
  Ti  Ti3  8  0.24694132  0.18790146  0.75000000  1
  Ti  Ti4  8  0.24737920  0.00000000  0.00000000  1
  Ti  Ti5  8  0.24817555  0.06258978  0.25000000  1
  Ti  Ti6  8  0.25000000  0.25000000  0.00000000  1
  Sn  Sn7  8  0.16839651  0.31271608  0.75000000  1
  Sn  Sn8  8  0.17032037  0.43866357  0.25000000  1
  Sn  Sn9  4  0.00000000  0.02121837  0.25000000  1
  Sn  Sn10  4  0.00000000  0.10525246  0.25000000  1
  Sn  Sn11  4  0.00000000  0.14671640  0.75000000  1
  Sn  Sn12  4  0.00000000  0.22970374  0.75000000  1
  Sn  Sn13  4  0.00000000  0.27208070  0.25000000  1
  Sn  Sn14  4  0.00000000  0.35420048  0.25000000  1
  Sn  Sn15  4  0.00000000  0.39741532  0.75000000  1
  Sn  Sn16  4  0.00000000  0.47905375  0.75000000  1
