# generated using pymatgen
data_U(GeOs)6
_symmetry_space_group_name_H-M   Cmcm
_cell_length_a   8.10881998
_cell_length_b   37.89187311
_cell_length_c   5.45058166
_cell_angle_alpha   90.00000000
_cell_angle_beta   90.00000000
_cell_angle_gamma   90.00000000
_symmetry_Int_Tables_number   63
_chemical_formula_structural   U(GeOs)6
_chemical_formula_sum   'U8 Ge48 Os48'
_cell_volume   1674.73687683
_cell_formula_units_Z   8
loop_
 _symmetry_equiv_pos_site_id
 _symmetry_equiv_pos_as_xyz
  1  'x, y, z'
  2  '-x, -y, -z'
  3  '-x, -y, z+1/2'
  4  'x, y, -z+1/2'
  5  'x, -y, -z'
  6  '-x, y, z'
  7  '-x, y, -z+1/2'
  8  'x, -y, z+1/2'
  9  'x+1/2, y+1/2, z'
  10  '-x+1/2, -y+1/2, -z'
  11  '-x+1/2, -y+1/2, z+1/2'
  12  'x+1/2, y+1/2, -z+1/2'
  13  'x+1/2, -y+1/2, -z'
  14  '-x+1/2, y+1/2, z'
  15  '-x+1/2, y+1/2, -z+1/2'
  16  'x+1/2, -y+1/2, z+1/2'
loop_
 _atom_site_type_symbol
 _atom_site_label
 _atom_site_symmetry_multiplicity
 _atom_site_fract_x
 _atom_site_fract_y
 _atom_site_fract_z
 _atom_site_occupancy
  U  U0  4  0.00000000  0.31027392  0.75000000  1
  U  U1  4  0.00000000  0.43502197  0.25000000  1
  Ge  Ge2  8  0.16152975  0.18626177  0.25000000  1
  Ge  Ge3  8  0.16164714  0.94156862  0.25000000  1
  Ge  Ge4  4  0.00000000  0.02173550  0.25000000  1
  Ge  Ge5  4  0.00000000  0.10343698  0.25000000  1
  Ge  Ge6  4  0.00000000  0.14467116  0.75000000  1
  Ge  Ge7  4  0.00000000  0.22806445  0.75000000  1
  Ge  Ge8  4  0.00000000  0.27039285  0.25000000  1
  Ge  Ge9  4  0.00000000  0.35338356  0.25000000  1
  Ge  Ge10  4  0.00000000  0.39447030  0.75000000  1
  Ge  Ge11  4  0.00000000  0.47847098  0.75000000  1
  Os  Os12  16  0.24965814  0.37459957  0.50063737  1
  Os  Os13  8  0.24690944  0.68760547  0.75000000  1
  Os  Os14  8  0.24744194  0.50000000  0.00000000  1
  Os  Os15  8  0.24818290  0.43729530  0.75000000  1
  Os  Os16  8  0.25000000  0.25000000  0.00000000  1
