# generated using pymatgen
data_U(PbW)6
_symmetry_space_group_name_H-M   Immm
_cell_length_a   5.35247703
_cell_length_b   12.05090231
_cell_length_c   27.85116392
_cell_angle_alpha   90.00000000
_cell_angle_beta   90.00000000
_cell_angle_gamma   90.00000000
_symmetry_Int_Tables_number   71
_chemical_formula_structural   U(PbW)6
_chemical_formula_sum   'U6 Pb36 W36'
_cell_volume   1796.46072559
_cell_formula_units_Z   6
loop_
 _symmetry_equiv_pos_site_id
 _symmetry_equiv_pos_as_xyz
  1  'x, y, z'
  2  '-x, -y, -z'
  3  '-x, -y, z'
  4  'x, y, -z'
  5  'x, -y, -z'
  6  '-x, y, z'
  7  '-x, y, -z'
  8  'x, -y, z'
  9  'x+1/2, y+1/2, z+1/2'
  10  '-x+1/2, -y+1/2, -z+1/2'
  11  '-x+1/2, -y+1/2, z+1/2'
  12  'x+1/2, y+1/2, -z+1/2'
  13  'x+1/2, -y+1/2, -z+1/2'
  14  '-x+1/2, y+1/2, z+1/2'
  15  '-x+1/2, y+1/2, -z+1/2'
  16  'x+1/2, -y+1/2, z+1/2'
loop_
 _atom_site_type_symbol
 _atom_site_label
 _atom_site_symmetry_multiplicity
 _atom_site_fract_x
 _atom_site_fract_y
 _atom_site_fract_z
 _atom_site_occupancy
  U  U0  4  0.00000000  0.00000000  0.16932993  1
  U  U1  2  0.00000000  0.50000000  0.50000000  1
  Pb  Pb2  8  0.00000000  0.31978422  0.16270847  1
  Pb  Pb3  4  0.00000000  0.00000000  0.05631299  1
  Pb  Pb4  4  0.00000000  0.00000000  0.28351929  1
  Pb  Pb5  4  0.00000000  0.00000000  0.39246562  1
  Pb  Pb6  4  0.00000000  0.18453775  0.50000000  1
  Pb  Pb7  4  0.00000000  0.50000000  0.05468651  1
  Pb  Pb8  4  0.00000000  0.50000000  0.27082070  1
  Pb  Pb9  4  0.00000000  0.50000000  0.38709837  1
  W  W10  16  0.24808015  0.29554999  0.41657886  1
  W  W11  8  0.00000000  0.29761372  0.66931297  1
  W  W12  8  0.25000000  0.25000000  0.25000000  1
  W  W13  4  0.00000000  0.20505248  0.00000000  1
