# generated using pymatgen
data_U(SiHg)6
_symmetry_space_group_name_H-M   Cmcm
_cell_length_a   7.97894238
_cell_length_b   22.32292360
_cell_length_c   6.14082739
_cell_angle_alpha   90.00000000
_cell_angle_beta   90.00000000
_cell_angle_gamma   90.00000000
_symmetry_Int_Tables_number   63
_chemical_formula_structural   U(SiHg)6
_chemical_formula_sum   'U4 Si24 Hg24'
_cell_volume   1093.76316056
_cell_formula_units_Z   4
loop_
 _symmetry_equiv_pos_site_id
 _symmetry_equiv_pos_as_xyz
  1  'x, y, z'
  2  '-x, -y, -z'
  3  '-x, -y, z+1/2'
  4  'x, y, -z+1/2'
  5  'x, -y, -z'
  6  '-x, y, z'
  7  '-x, y, -z+1/2'
  8  'x, -y, z+1/2'
  9  'x+1/2, y+1/2, z'
  10  '-x+1/2, -y+1/2, -z'
  11  '-x+1/2, -y+1/2, z+1/2'
  12  'x+1/2, y+1/2, -z+1/2'
  13  'x+1/2, -y+1/2, -z'
  14  '-x+1/2, y+1/2, z'
  15  '-x+1/2, y+1/2, -z+1/2'
  16  'x+1/2, -y+1/2, z+1/2'
loop_
 _atom_site_type_symbol
 _atom_site_label
 _atom_site_symmetry_multiplicity
 _atom_site_fract_x
 _atom_site_fract_y
 _atom_site_fract_z
 _atom_site_occupancy
  U  U0  4  0.00000000  0.12367470  0.75000000  1
  Si  Si1  8  0.14887361  0.37575318  0.25000000  1
  Si  Si2  4  0.00000000  0.04814278  0.25000000  1
  Si  Si3  4  0.00000000  0.18958859  0.25000000  1
  Si  Si4  4  0.00000000  0.25757696  0.75000000  1
  Si  Si5  4  0.00000000  0.45996887  0.75000000  1
  Hg  Hg6  8  0.23759928  0.37818203  0.75000000  1
  Hg  Hg7  8  0.24779599  0.00000000  0.00000000  1
  Hg  Hg8  8  0.25000000  0.25000000  0.00000000  1
