# generated using pymatgen
data_U(GeRh)6
_symmetry_space_group_name_H-M   Cmcm
_cell_length_a   8.05505941
_cell_length_b   37.94224707
_cell_length_c   5.46515763
_cell_angle_alpha   90.00000000
_cell_angle_beta   90.00000000
_cell_angle_gamma   90.00000000
_symmetry_Int_Tables_number   63
_chemical_formula_structural   U(GeRh)6
_chemical_formula_sum   'U8 Ge48 Rh48'
_cell_volume   1670.30002605
_cell_formula_units_Z   8
loop_
 _symmetry_equiv_pos_site_id
 _symmetry_equiv_pos_as_xyz
  1  'x, y, z'
  2  '-x, -y, -z'
  3  '-x, -y, z+1/2'
  4  'x, y, -z+1/2'
  5  'x, -y, -z'
  6  '-x, y, z'
  7  '-x, y, -z+1/2'
  8  'x, -y, z+1/2'
  9  'x+1/2, y+1/2, z'
  10  '-x+1/2, -y+1/2, -z'
  11  '-x+1/2, -y+1/2, z+1/2'
  12  'x+1/2, y+1/2, -z+1/2'
  13  'x+1/2, -y+1/2, -z'
  14  '-x+1/2, y+1/2, z'
  15  '-x+1/2, y+1/2, -z+1/2'
  16  'x+1/2, -y+1/2, z+1/2'
loop_
 _atom_site_type_symbol
 _atom_site_label
 _atom_site_symmetry_multiplicity
 _atom_site_fract_x
 _atom_site_fract_y
 _atom_site_fract_z
 _atom_site_occupancy
  U  U0  4  0.00000000  0.31036446  0.25000000  1
  U  U1  4  0.00000000  0.43536406  0.75000000  1
  Ge  Ge2  8  0.15667285  0.05837967  0.25000000  1
  Ge  Ge3  8  0.15769164  0.18568896  0.75000000  1
  Ge  Ge4  4  0.00000000  0.02210562  0.75000000  1
  Ge  Ge5  4  0.00000000  0.10319239  0.75000000  1
  Ge  Ge6  4  0.00000000  0.14402508  0.25000000  1
  Ge  Ge7  4  0.00000000  0.22812110  0.25000000  1
  Ge  Ge8  4  0.00000000  0.27089598  0.75000000  1
  Ge  Ge9  4  0.00000000  0.35309899  0.75000000  1
  Ge  Ge10  4  0.00000000  0.39431736  0.25000000  1
  Ge  Ge11  4  0.00000000  0.47837543  0.25000000  1
  Rh  Rh12  16  0.24950177  0.37458863  0.00046655  1
  Rh  Rh13  8  0.24599078  0.50000000  0.00000000  1
  Rh  Rh14  8  0.24769022  0.31231525  0.75000000  1
  Rh  Rh15  8  0.24873972  0.43731340  0.25000000  1
  Rh  Rh16  8  0.25000000  0.25000000  0.00000000  1
