# generated using pymatgen
data_Hf6UGe6
_symmetry_space_group_name_H-M   Immm
_cell_length_a   6.04022899
_cell_length_b   8.31460905
_cell_length_c   31.36680042
_cell_angle_alpha   90.00000000
_cell_angle_beta   90.00000000
_cell_angle_gamma   90.00000000
_symmetry_Int_Tables_number   71
_chemical_formula_structural   Hf6UGe6
_chemical_formula_sum   'Hf36 U6 Ge36'
_cell_volume   1575.30792274
_cell_formula_units_Z   6
loop_
 _symmetry_equiv_pos_site_id
 _symmetry_equiv_pos_as_xyz
  1  'x, y, z'
  2  '-x, -y, -z'
  3  '-x, -y, z'
  4  'x, y, -z'
  5  'x, -y, -z'
  6  '-x, y, z'
  7  '-x, y, -z'
  8  'x, -y, z'
  9  'x+1/2, y+1/2, z+1/2'
  10  '-x+1/2, -y+1/2, -z+1/2'
  11  '-x+1/2, -y+1/2, z+1/2'
  12  'x+1/2, y+1/2, -z+1/2'
  13  'x+1/2, -y+1/2, -z+1/2'
  14  '-x+1/2, y+1/2, z+1/2'
  15  '-x+1/2, y+1/2, -z+1/2'
  16  'x+1/2, -y+1/2, z+1/2'
loop_
 _atom_site_type_symbol
 _atom_site_label
 _atom_site_symmetry_multiplicity
 _atom_site_fract_x
 _atom_site_fract_y
 _atom_site_fract_z
 _atom_site_occupancy
  Hf  Hf0  16  0.24964499  0.24836357  0.08329382  1
  Hf  Hf1  8  0.00000000  0.25377942  0.83327250  1
  Hf  Hf2  8  0.25000000  0.25000000  0.25000000  1
  Hf  Hf3  4  0.00000000  0.25100527  0.50000000  1
  U  U4  4  0.00000000  0.50000000  0.33274298  1
  U  U5  2  0.00000000  0.00000000  0.00000000  1
  Ge  Ge6  8  0.00000000  0.16035882  0.33326424  1
  Ge  Ge7  4  0.00000000  0.00000000  0.11199943  1
  Ge  Ge8  4  0.00000000  0.00000000  0.22031280  1
  Ge  Ge9  4  0.00000000  0.00000000  0.44424274  1
  Ge  Ge10  4  0.00000000  0.33952709  0.00000000  1
  Ge  Ge11  4  0.00000000  0.50000000  0.11028787  1
  Ge  Ge12  4  0.00000000  0.50000000  0.22423230  1
  Ge  Ge13  4  0.00000000  0.50000000  0.44438491  1
