# generated using pymatgen
data_U(GePd)6
_symmetry_space_group_name_H-M   C2/m
_cell_length_a   5.60133213
_cell_length_b   48.06882043
_cell_length_c   8.39738565
_cell_angle_alpha   90.00000000
_cell_angle_beta   95.43363483
_cell_angle_gamma   90.00000000
_symmetry_Int_Tables_number   12
_chemical_formula_structural   U(GePd)6
_chemical_formula_sum   'U10 Ge60 Pd60'
_cell_volume   2250.83163147
_cell_formula_units_Z   10
loop_
 _symmetry_equiv_pos_site_id
 _symmetry_equiv_pos_as_xyz
  1  'x, y, z'
  2  '-x, -y, -z'
  3  '-x, y, -z'
  4  'x, -y, z'
  5  'x+1/2, y+1/2, z'
  6  '-x+1/2, -y+1/2, -z'
  7  '-x+1/2, y+1/2, -z'
  8  'x+1/2, -y+1/2, z'
loop_
 _atom_site_type_symbol
 _atom_site_label
 _atom_site_symmetry_multiplicity
 _atom_site_fract_x
 _atom_site_fract_y
 _atom_site_fract_z
 _atom_site_occupancy
  U  U0  4  0.00000000  0.19930842  0.00000000  1
  U  U1  4  0.00000000  0.39928417  0.50000000  1
  U  U2  2  0.00000000  0.00000000  0.50000000  1
  Ge  Ge3  8  0.00184979  0.79996684  0.64609726  1
  Ge  Ge4  8  0.00187208  0.40004765  0.14614762  1
  Ge  Ge5  4  0.00000000  0.06685672  0.50000000  1
  Ge  Ge6  4  0.00000000  0.06690390  0.00000000  1
  Ge  Ge7  4  0.00000000  0.13302653  0.50000000  1
  Ge  Ge8  4  0.00000000  0.13324549  0.00000000  1
  Ge  Ge9  4  0.00000000  0.26681771  0.00000000  1
  Ge  Ge10  4  0.00000000  0.26693654  0.50000000  1
  Ge  Ge11  4  0.00000000  0.33303709  0.00000000  1
  Ge  Ge12  4  0.00000000  0.33325521  0.50000000  1
  Ge  Ge13  4  0.00000000  0.46686178  0.50000000  1
  Ge  Ge14  4  0.00000000  0.46694632  0.00000000  1
  Ge  Ge15  4  0.00209337  0.00000000  0.14616589  1
  Pd  Pd16  8  0.00143733  0.30003353  0.74935017  1
  Pd  Pd17  8  0.00148532  0.10001520  0.24934272  1
  Pd  Pd18  8  0.24951670  0.04981787  0.75292585  1
  Pd  Pd19  8  0.24965024  0.24984338  0.25298622  1
  Pd  Pd20  8  0.24987545  0.44987139  0.75285976  1
  Pd  Pd21  8  0.24999028  0.34999502  0.74997867  1
  Pd  Pd22  8  0.24999665  0.35001145  0.25002859  1
  Pd  Pd23  4  0.00137610  0.50000000  0.24701206  1
