# generated using pymatgen
data_U(VSn)6
_symmetry_space_group_name_H-M   Immm
_cell_length_a   5.43228309
_cell_length_b   9.42477603
_cell_length_c   28.21111854
_cell_angle_alpha   90.00000000
_cell_angle_beta   90.00000000
_cell_angle_gamma   90.00000000
_symmetry_Int_Tables_number   71
_chemical_formula_structural   U(VSn)6
_chemical_formula_sum   'U6 V36 Sn36'
_cell_volume   1444.35429898
_cell_formula_units_Z   6
loop_
 _symmetry_equiv_pos_site_id
 _symmetry_equiv_pos_as_xyz
  1  'x, y, z'
  2  '-x, -y, -z'
  3  '-x, -y, z'
  4  'x, y, -z'
  5  'x, -y, -z'
  6  '-x, y, z'
  7  '-x, y, -z'
  8  'x, -y, z'
  9  'x+1/2, y+1/2, z+1/2'
  10  '-x+1/2, -y+1/2, -z+1/2'
  11  '-x+1/2, -y+1/2, z+1/2'
  12  'x+1/2, y+1/2, -z+1/2'
  13  'x+1/2, -y+1/2, -z+1/2'
  14  '-x+1/2, y+1/2, z+1/2'
  15  '-x+1/2, y+1/2, -z+1/2'
  16  'x+1/2, -y+1/2, z+1/2'
loop_
 _atom_site_type_symbol
 _atom_site_label
 _atom_site_symmetry_multiplicity
 _atom_site_fract_x
 _atom_site_fract_y
 _atom_site_fract_z
 _atom_site_occupancy
  U  U0  4  0.00000000  0.00000000  0.16727607  1
  U  U1  2  0.00000000  0.50000000  0.50000000  1
  V  V2  16  0.24984231  0.25408057  0.41685317  1
  V  V3  8  0.00000000  0.25415432  0.33320647  1
  V  V4  8  0.25000000  0.25000000  0.25000000  1
  V  V5  4  0.00000000  0.24598409  0.00000000  1
  Sn  Sn6  8  0.00000000  0.33608241  0.16629560  1
  Sn  Sn7  4  0.00000000  0.00000000  0.05574861  1
  Sn  Sn8  4  0.00000000  0.00000000  0.27942655  1
  Sn  Sn9  4  0.00000000  0.00000000  0.38961008  1
  Sn  Sn10  4  0.00000000  0.16357183  0.50000000  1
  Sn  Sn11  4  0.00000000  0.50000000  0.05574182  1
  Sn  Sn12  4  0.00000000  0.50000000  0.27639087  1
  Sn  Sn13  4  0.00000000  0.50000000  0.38840698  1
