# generated using pymatgen
data_U(CuPb)6
_symmetry_space_group_name_H-M   Cmcm
_cell_length_a   9.74524870
_cell_length_b   78.28499004
_cell_length_c   5.65085738
_cell_angle_alpha   90.00000000
_cell_angle_beta   90.00000000
_cell_angle_gamma   90.00000000
_symmetry_Int_Tables_number   63
_chemical_formula_structural   U(CuPb)6
_chemical_formula_sum   'U16 Cu96 Pb96'
_cell_volume   4311.07694370
_cell_formula_units_Z   16
loop_
 _symmetry_equiv_pos_site_id
 _symmetry_equiv_pos_as_xyz
  1  'x, y, z'
  2  '-x, -y, -z'
  3  '-x, -y, z+1/2'
  4  'x, y, -z+1/2'
  5  'x, -y, -z'
  6  '-x, y, z'
  7  '-x, y, -z+1/2'
  8  'x, -y, z+1/2'
  9  'x+1/2, y+1/2, z'
  10  '-x+1/2, -y+1/2, -z'
  11  '-x+1/2, -y+1/2, z+1/2'
  12  'x+1/2, y+1/2, -z+1/2'
  13  'x+1/2, -y+1/2, -z'
  14  '-x+1/2, y+1/2, z'
  15  '-x+1/2, y+1/2, -z+1/2'
  16  'x+1/2, -y+1/2, z+1/2'
loop_
 _atom_site_type_symbol
 _atom_site_label
 _atom_site_symmetry_multiplicity
 _atom_site_fract_x
 _atom_site_fract_y
 _atom_site_fract_z
 _atom_site_occupancy
  U  U0  4  0.00000000  0.03181738  0.25000000  1
  U  U1  4  0.00000000  0.28101211  0.25000000  1
  U  U2  4  0.00000000  0.34381501  0.75000000  1
  U  U3  4  0.00000000  0.40664951  0.25000000  1
  Cu  Cu4  16  0.24376431  0.06188684  0.00510036  1
  Cu  Cu5  16  0.24914388  0.81251353  0.50008318  1
  Cu  Cu6  16  0.24942034  0.12499358  0.00014906  1
  Cu  Cu7  8  0.23907331  0.03127653  0.75000000  1
  Cu  Cu8  8  0.24025664  0.00000000  0.00000000  1
  Cu  Cu9  8  0.24941904  0.84377767  0.25000000  1
  Cu  Cu10  8  0.24955027  0.21874682  0.25000000  1
  Cu  Cu11  8  0.24981422  0.40629719  0.75000000  1
  Cu  Cu12  8  0.25000000  0.25000000  0.00000000  1
  Pb  Pb13  8  0.17628010  0.84375096  0.75000000  1
  Pb  Pb14  8  0.17663796  0.21868869  0.75000000  1
  Pb  Pb15  8  0.17701794  0.09378616  0.75000000  1
  Pb  Pb16  8  0.17778000  0.46919987  0.75000000  1
  Pb  Pb17  4  0.00000000  0.01043947  0.75000000  1
  Pb  Pb18  4  0.00000000  0.05236902  0.75000000  1
  Pb  Pb19  4  0.00000000  0.07323873  0.25000000  1
  Pb  Pb20  4  0.00000000  0.11477080  0.25000000  1
  Pb  Pb21  4  0.00000000  0.13540987  0.75000000  1
  Pb  Pb22  4  0.00000000  0.17710659  0.75000000  1
  Pb  Pb23  4  0.00000000  0.19787126  0.25000000  1
  Pb  Pb24  4  0.00000000  0.23964573  0.25000000  1
  Pb  Pb25  4  0.00000000  0.26051225  0.75000000  1
  Pb  Pb26  4  0.00000000  0.30207074  0.75000000  1
  Pb  Pb27  4  0.00000000  0.32290716  0.25000000  1
  Pb  Pb28  4  0.00000000  0.36469813  0.25000000  1
  Pb  Pb29  4  0.00000000  0.38558202  0.75000000  1
  Pb  Pb30  4  0.00000000  0.42736483  0.75000000  1
  Pb  Pb31  4  0.00000000  0.44810214  0.25000000  1
  Pb  Pb32  4  0.00000000  0.48972839  0.25000000  1
