# generated using pymatgen
data_U(SiAu)6
_symmetry_space_group_name_H-M   Cmcm
_cell_length_a   7.85617956
_cell_length_b   82.46339566
_cell_length_c   5.95677105
_cell_angle_alpha   90.00000000
_cell_angle_beta   90.00000000
_cell_angle_gamma   90.00000000
_symmetry_Int_Tables_number   63
_chemical_formula_structural   U(SiAu)6
_chemical_formula_sum   'U16 Si96 Au96'
_cell_volume   3859.07770392
_cell_formula_units_Z   16
loop_
 _symmetry_equiv_pos_site_id
 _symmetry_equiv_pos_as_xyz
  1  'x, y, z'
  2  '-x, -y, -z'
  3  '-x, -y, z+1/2'
  4  'x, y, -z+1/2'
  5  'x, -y, -z'
  6  '-x, y, z'
  7  '-x, y, -z+1/2'
  8  'x, -y, z+1/2'
  9  'x+1/2, y+1/2, z'
  10  '-x+1/2, -y+1/2, -z'
  11  '-x+1/2, -y+1/2, z+1/2'
  12  'x+1/2, y+1/2, -z+1/2'
  13  'x+1/2, -y+1/2, -z'
  14  '-x+1/2, y+1/2, z'
  15  '-x+1/2, y+1/2, -z+1/2'
  16  'x+1/2, -y+1/2, z+1/2'
loop_
 _atom_site_type_symbol
 _atom_site_label
 _atom_site_symmetry_multiplicity
 _atom_site_fract_x
 _atom_site_fract_y
 _atom_site_fract_z
 _atom_site_occupancy
  U  U0  4  0.00000000  0.09371229  0.25000000  1
  U  U1  4  0.00000000  0.15622834  0.75000000  1
  U  U2  4  0.00000000  0.21854999  0.25000000  1
  U  U3  4  0.00000000  0.46843176  0.25000000  1
  Si  Si4  8  0.14269902  0.03118517  0.75000000  1
  Si  Si5  8  0.14298912  0.28131750  0.75000000  1
  Si  Si6  8  0.14304529  0.34378943  0.25000000  1
  Si  Si7  8  0.14306671  0.40615001  0.75000000  1
  Si  Si8  4  0.00000000  0.01026014  0.25000000  1
  Si  Si9  4  0.00000000  0.05395241  0.25000000  1
  Si  Si10  4  0.00000000  0.07450389  0.75000000  1
  Si  Si11  4  0.00000000  0.11456284  0.75000000  1
  Si  Si12  4  0.00000000  0.13546504  0.25000000  1
  Si  Si13  4  0.00000000  0.17706103  0.25000000  1
  Si  Si14  4  0.00000000  0.19785644  0.75000000  1
  Si  Si15  4  0.00000000  0.23783404  0.75000000  1
  Si  Si16  4  0.00000000  0.25862535  0.25000000  1
  Si  Si17  4  0.00000000  0.30212433  0.25000000  1
  Si  Si18  4  0.00000000  0.32290310  0.75000000  1
  Si  Si19  4  0.00000000  0.36459190  0.75000000  1
  Si  Si20  4  0.00000000  0.38535412  0.25000000  1
  Si  Si21  4  0.00000000  0.42828712  0.25000000  1
  Si  Si22  4  0.00000000  0.44899895  0.75000000  1
  Si  Si23  4  0.00000000  0.48966097  0.75000000  1
  Au  Au24  16  0.23821443  0.31250272  0.00023216  1
  Au  Au25  16  0.23851576  0.37497944  0.00005474  1
  Au  Au26  16  0.24019960  0.43743203  0.50173319  1
  Au  Au27  8  0.23750400  0.28117066  0.25000000  1
  Au  Au28  8  0.23853503  0.34375788  0.75000000  1
  Au  Au29  8  0.23890164  0.40623779  0.25000000  1
  Au  Au30  8  0.24108340  0.46880778  0.75000000  1
  Au  Au31  8  0.24226328  0.50000000  0.00000000  1
  Au  Au32  8  0.25000000  0.25000000  0.00000000  1
