# generated using pymatgen
data_Zr6USn6
_symmetry_space_group_name_H-M   Cmcm
_cell_length_a   9.91086952
_cell_length_b   42.28137664
_cell_length_c   6.07770444
_cell_angle_alpha   90.00000000
_cell_angle_beta   90.00000000
_cell_angle_gamma   90.00000000
_symmetry_Int_Tables_number   63
_chemical_formula_structural   Zr6USn6
_chemical_formula_sum   'Zr48 U8 Sn48'
_cell_volume   2546.83291350
_cell_formula_units_Z   8
loop_
 _symmetry_equiv_pos_site_id
 _symmetry_equiv_pos_as_xyz
  1  'x, y, z'
  2  '-x, -y, -z'
  3  '-x, -y, z+1/2'
  4  'x, y, -z+1/2'
  5  'x, -y, -z'
  6  '-x, y, z'
  7  '-x, y, -z+1/2'
  8  'x, -y, z+1/2'
  9  'x+1/2, y+1/2, z'
  10  '-x+1/2, -y+1/2, -z'
  11  '-x+1/2, -y+1/2, z+1/2'
  12  'x+1/2, y+1/2, -z+1/2'
  13  'x+1/2, -y+1/2, -z'
  14  '-x+1/2, y+1/2, z'
  15  '-x+1/2, y+1/2, -z+1/2'
  16  'x+1/2, -y+1/2, z+1/2'
loop_
 _atom_site_type_symbol
 _atom_site_label
 _atom_site_symmetry_multiplicity
 _atom_site_fract_x
 _atom_site_fract_y
 _atom_site_fract_z
 _atom_site_occupancy
  Zr  Zr0  16  0.24684562  0.62502625  0.50058322  1
  Zr  Zr1  8  0.24221967  0.50000000  0.00000000  1
  Zr  Zr2  8  0.24774059  0.43715948  0.75000000  1
  Zr  Zr3  8  0.24948892  0.81258388  0.25000000  1
  Zr  Zr4  8  0.25000000  0.25000000  0.00000000  1
  U  U5  4  0.00000000  0.31269379  0.75000000  1
  U  U6  4  0.00000000  0.43581052  0.25000000  1
  Sn  Sn7  8  0.19005461  0.18752717  0.25000000  1
  Sn  Sn8  8  0.19128333  0.93806346  0.25000000  1
  Sn  Sn9  4  0.00000000  0.02030338  0.25000000  1
  Sn  Sn10  4  0.00000000  0.10412907  0.25000000  1
  Sn  Sn11  4  0.00000000  0.14526056  0.75000000  1
  Sn  Sn12  4  0.00000000  0.23267221  0.75000000  1
  Sn  Sn13  4  0.00000000  0.27395407  0.25000000  1
  Sn  Sn14  4  0.00000000  0.35324435  0.25000000  1
  Sn  Sn15  4  0.00000000  0.39509964  0.75000000  1
  Sn  Sn16  4  0.00000000  0.47697520  0.75000000  1
