# generated using pymatgen
data_U(HgPb)6
_symmetry_space_group_name_H-M   Cmcm
_cell_length_a   14.97791545
_cell_length_b   80.24953052
_cell_length_c   5.78132218
_cell_angle_alpha   90.00000000
_cell_angle_beta   90.00000000
_cell_angle_gamma   90.00000000
_symmetry_Int_Tables_number   63
_chemical_formula_structural   U(HgPb)6
_chemical_formula_sum   'U16 Hg96 Pb96'
_cell_volume   6948.97976930
_cell_formula_units_Z   16
loop_
 _symmetry_equiv_pos_site_id
 _symmetry_equiv_pos_as_xyz
  1  'x, y, z'
  2  '-x, -y, -z'
  3  '-x, -y, z+1/2'
  4  'x, y, -z+1/2'
  5  'x, -y, -z'
  6  '-x, y, z'
  7  '-x, y, -z+1/2'
  8  'x, -y, z+1/2'
  9  'x+1/2, y+1/2, z'
  10  '-x+1/2, -y+1/2, -z'
  11  '-x+1/2, -y+1/2, z+1/2'
  12  'x+1/2, y+1/2, -z+1/2'
  13  'x+1/2, -y+1/2, -z'
  14  '-x+1/2, y+1/2, z'
  15  '-x+1/2, y+1/2, -z+1/2'
  16  'x+1/2, -y+1/2, z+1/2'
loop_
 _atom_site_type_symbol
 _atom_site_label
 _atom_site_symmetry_multiplicity
 _atom_site_fract_x
 _atom_site_fract_y
 _atom_site_fract_z
 _atom_site_occupancy
  U  U0  4  0.00000000  0.03080870  0.75000000  1
  U  U1  4  0.00000000  0.28220466  0.75000000  1
  U  U2  4  0.00000000  0.34383984  0.25000000  1
  U  U3  4  0.00000000  0.40594893  0.75000000  1
  Hg  Hg4  16  0.23767198  0.18754100  0.50003824  1
  Hg  Hg5  16  0.23866074  0.12496379  0.50010853  1
  Hg  Hg6  16  0.24411103  0.06234206  0.50004589  1
  Hg  Hg7  8  0.23427971  0.21887438  0.75000000  1
  Hg  Hg8  8  0.23762396  0.09361205  0.75000000  1
  Hg  Hg9  8  0.23890173  0.15625669  0.25000000  1
  Hg  Hg10  8  0.24618858  0.50000000  0.00000000  1
  Hg  Hg11  8  0.24619653  0.46882691  0.75000000  1
  Hg  Hg12  8  0.25000000  0.25000000  0.00000000  1
  Pb  Pb13  8  0.10789022  0.15624366  0.75000000  1
  Pb  Pb14  8  0.10810547  0.21932047  0.25000000  1
  Pb  Pb15  8  0.10882302  0.09364166  0.25000000  1
  Pb  Pb16  8  0.11013720  0.46876921  0.25000000  1
  Pb  Pb17  4  0.00000000  0.01051014  0.25000000  1
  Pb  Pb18  4  0.00000000  0.05166574  0.25000000  1
  Pb  Pb19  4  0.00000000  0.07258416  0.75000000  1
  Pb  Pb20  4  0.00000000  0.11474200  0.75000000  1
  Pb  Pb21  4  0.00000000  0.13536772  0.25000000  1
  Pb  Pb22  4  0.00000000  0.17719539  0.25000000  1
  Pb  Pb23  4  0.00000000  0.19797967  0.75000000  1
  Pb  Pb24  4  0.00000000  0.24061596  0.75000000  1
  Pb  Pb25  4  0.00000000  0.26137377  0.25000000  1
  Pb  Pb26  4  0.00000000  0.30233141  0.25000000  1
  Pb  Pb27  4  0.00000000  0.32326616  0.75000000  1
  Pb  Pb28  4  0.00000000  0.36448492  0.75000000  1
  Pb  Pb29  4  0.00000000  0.38543623  0.25000000  1
  Pb  Pb30  4  0.00000000  0.42663827  0.25000000  1
  Pb  Pb31  4  0.00000000  0.44728831  0.75000000  1
  Pb  Pb32  4  0.00000000  0.48974622  0.75000000  1
