# generated using pymatgen
data_U(GeOs)6
_symmetry_space_group_name_H-M   Cmmm
_cell_length_a   5.45474467
_cell_length_b   47.25036768
_cell_length_c   8.11489124
_cell_angle_alpha   90.00000000
_cell_angle_beta   90.00000000
_cell_angle_gamma   90.00000000
_symmetry_Int_Tables_number   65
_chemical_formula_structural   U(GeOs)6
_chemical_formula_sum   'U10 Ge60 Os60'
_cell_volume   2091.52144877
_cell_formula_units_Z   10
loop_
 _symmetry_equiv_pos_site_id
 _symmetry_equiv_pos_as_xyz
  1  'x, y, z'
  2  '-x, -y, -z'
  3  '-x, -y, z'
  4  'x, y, -z'
  5  'x, -y, -z'
  6  '-x, y, z'
  7  '-x, y, -z'
  8  'x, -y, z'
  9  'x+1/2, y+1/2, z'
  10  '-x+1/2, -y+1/2, -z'
  11  '-x+1/2, -y+1/2, z'
  12  'x+1/2, y+1/2, -z'
  13  'x+1/2, -y+1/2, -z'
  14  '-x+1/2, y+1/2, z'
  15  '-x+1/2, y+1/2, -z'
  16  'x+1/2, -y+1/2, z'
loop_
 _atom_site_type_symbol
 _atom_site_label
 _atom_site_symmetry_multiplicity
 _atom_site_fract_x
 _atom_site_fract_y
 _atom_site_fract_z
 _atom_site_occupancy
  U  U0  4  0.00000000  0.10026312  0.50000000  1
  U  U1  4  0.00000000  0.30025252  0.00000000  1
  U  U2  2  0.00000000  0.50000000  0.50000000  1
  Ge  Ge3  8  0.00000000  0.09986752  0.16300001  1
  Ge  Ge4  8  0.00000000  0.29987069  0.33700304  1
  Ge  Ge5  4  0.00000000  0.03317789  0.00000000  1
  Ge  Ge6  4  0.00000000  0.03327293  0.50000000  1
  Ge  Ge7  4  0.00000000  0.16650912  0.50000000  1
  Ge  Ge8  4  0.00000000  0.16695600  0.00000000  1
  Ge  Ge9  4  0.00000000  0.23317026  0.50000000  1
  Ge  Ge10  4  0.00000000  0.23323421  0.00000000  1
  Ge  Ge11  4  0.00000000  0.36650781  0.00000000  1
  Ge  Ge12  4  0.00000000  0.36695353  0.50000000  1
  Ge  Ge13  4  0.00000000  0.43318856  0.00000000  1
  Ge  Ge14  4  0.00000000  0.43319591  0.50000000  1
  Ge  Ge15  4  0.00000000  0.50000000  0.16289850  1
  Os  Os16  16  0.24994558  0.05001791  0.25053718  1
  Os  Os17  16  0.24999772  0.15000186  0.25000096  1
  Os  Os18  8  0.00000000  0.20002478  0.24853774  1
  Os  Os19  8  0.00000000  0.40001644  0.25143399  1
  Os  Os20  8  0.25000000  0.25000000  0.24944062  1
  Os  Os21  4  0.00000000  0.00000000  0.25045529  1
