# generated using pymatgen
data_U(NbGe)6
_symmetry_space_group_name_H-M   Cmcm
_cell_length_a   8.77102033
_cell_length_b   77.84583668
_cell_length_c   5.62019985
_cell_angle_alpha   90.00000000
_cell_angle_beta   90.00000000
_cell_angle_gamma   90.00000000
_symmetry_Int_Tables_number   63
_chemical_formula_structural   U(NbGe)6
_chemical_formula_sum   'U16 Nb96 Ge96'
_cell_volume   3837.40173304
_cell_formula_units_Z   16
loop_
 _symmetry_equiv_pos_site_id
 _symmetry_equiv_pos_as_xyz
  1  'x, y, z'
  2  '-x, -y, -z'
  3  '-x, -y, z+1/2'
  4  'x, y, -z+1/2'
  5  'x, -y, -z'
  6  '-x, y, z'
  7  '-x, y, -z+1/2'
  8  'x, -y, z+1/2'
  9  'x+1/2, y+1/2, z'
  10  '-x+1/2, -y+1/2, -z'
  11  '-x+1/2, -y+1/2, z+1/2'
  12  'x+1/2, y+1/2, -z+1/2'
  13  'x+1/2, -y+1/2, -z'
  14  '-x+1/2, y+1/2, z'
  15  '-x+1/2, y+1/2, -z+1/2'
  16  'x+1/2, -y+1/2, z+1/2'
loop_
 _atom_site_type_symbol
 _atom_site_label
 _atom_site_symmetry_multiplicity
 _atom_site_fract_x
 _atom_site_fract_y
 _atom_site_fract_z
 _atom_site_occupancy
  U  U0  4  0.00000000  0.09395067  0.25000000  1
  U  U1  4  0.00000000  0.15625345  0.75000000  1
  U  U2  4  0.00000000  0.21845877  0.25000000  1
  U  U3  4  0.00000000  0.46890584  0.25000000  1
  Nb  Nb4  16  0.24647739  0.37503912  0.50008095  1
  Nb  Nb5  16  0.24664015  0.31246563  0.50017782  1
  Nb  Nb6  16  0.24890890  0.43759069  0.50003444  1
  Nb  Nb7  8  0.24261826  0.28113785  0.25000000  1
  Nb  Nb8  8  0.24507224  0.40634581  0.25000000  1
  Nb  Nb9  8  0.24626813  0.34375088  0.75000000  1
  Nb  Nb10  8  0.24750399  0.03122181  0.25000000  1
  Nb  Nb11  8  0.24906278  0.00000000  0.00000000  1
  Nb  Nb12  8  0.25000000  0.25000000  0.00000000  1
  Ge  Ge13  8  0.17239540  0.71883014  0.25000000  1
  Ge  Ge14  8  0.17255399  0.40630991  0.75000000  1
  Ge  Ge15  8  0.17306479  0.34375434  0.25000000  1
  Ge  Ge16  8  0.17430779  0.03129402  0.75000000  1
  Ge  Ge17  4  0.00000000  0.01028182  0.25000000  1
  Ge  Ge18  4  0.00000000  0.05319576  0.25000000  1
  Ge  Ge19  4  0.00000000  0.07399016  0.75000000  1
  Ge  Ge20  4  0.00000000  0.11457361  0.75000000  1
  Ge  Ge21  4  0.00000000  0.13546752  0.25000000  1
  Ge  Ge22  4  0.00000000  0.17700268  0.25000000  1
  Ge  Ge23  4  0.00000000  0.19803758  0.75000000  1
  Ge  Ge24  4  0.00000000  0.23817197  0.75000000  1
  Ge  Ge25  4  0.00000000  0.25894062  0.25000000  1
  Ge  Ge26  4  0.00000000  0.30221865  0.25000000  1
  Ge  Ge27  4  0.00000000  0.32284784  0.75000000  1
  Ge  Ge28  4  0.00000000  0.36463429  0.75000000  1
  Ge  Ge29  4  0.00000000  0.38539833  0.25000000  1
  Ge  Ge30  4  0.00000000  0.42809932  0.25000000  1
  Ge  Ge31  4  0.00000000  0.44888244  0.75000000  1
  Ge  Ge32  4  0.00000000  0.48953889  0.75000000  1
