# generated using pymatgen
data_U(ZnPb)6
_symmetry_space_group_name_H-M   P-1
_cell_length_a   6.01353202
_cell_length_b   11.08570726
_cell_length_c   38.62003697
_cell_angle_alpha   89.87395113
_cell_angle_beta   87.70223182
_cell_angle_gamma   79.01133236
_symmetry_Int_Tables_number   2
_chemical_formula_structural   U(ZnPb)6
_chemical_formula_sum   'U8 Zn48 Pb48'
_cell_volume   2525.29993224
_cell_formula_units_Z   8
loop_
 _symmetry_equiv_pos_site_id
 _symmetry_equiv_pos_as_xyz
  1  'x, y, z'
  2  '-x, -y, -z'
loop_
 _atom_site_type_symbol
 _atom_site_label
 _atom_site_symmetry_multiplicity
 _atom_site_fract_x
 _atom_site_fract_y
 _atom_site_fract_z
 _atom_site_occupancy
  U  U0  2  0.03291659  0.71643589  0.56229505  1
  U  U1  2  0.15754700  0.59564456  0.81206779  1
  U  U2  2  0.22256902  0.02766983  0.93668726  1
  U  U3  2  0.40624759  0.34365165  0.31259509  1
  Zn  Zn4  2  0.00977065  0.46136315  0.62087329  1
  Zn  Zn5  2  0.01186282  0.20096177  0.06346112  1
  Zn  Zn6  2  0.04782761  0.93227136  0.61948728  1
  Zn  Zn7  2  0.06514393  0.64934331  0.18767453  1
  Zn  Zn8  2  0.14013338  0.38018149  0.75528020  1
  Zn  Zn9  2  0.17605391  0.78589666  0.99394081  1
  Zn  Zn10  2  0.17809666  0.85077650  0.75408046  1
  Zn  Zn11  2  0.18809691  0.52446162  0.43753403  1
  Zn  Zn12  2  0.19295419  0.09712264  0.31286816  1
  Zn  Zn13  2  0.19612072  0.29913266  0.87927390  1
  Zn  Zn14  2  0.19725944  0.81368079  0.87595180  1
  Zn  Zn15  2  0.24941664  0.96273210  0.56169009  1
  Zn  Zn16  2  0.24958438  0.23605843  0.99361975  1
  Zn  Zn17  2  0.28493706  0.69850983  0.12537085  1
  Zn  Zn18  2  0.36506254  0.17278215  0.12400386  1
  Zn  Zn19  2  0.37927178  0.83635767  0.81210808  1
  Zn  Zn20  2  0.38042785  0.40956573  0.68807485  1
  Zn  Zn21  2  0.38697427  0.08622916  0.37064435  1
  Zn  Zn22  2  0.39270378  0.12878921  0.25536359  1
  Zn  Zn23  2  0.42062394  0.55855117  0.36963408  1
  Zn  Zn24  2  0.42577559  0.60124784  0.25425311  1
  Zn  Zn25  2  0.44821715  0.26374259  0.93656638  1
  Zn  Zn26  1  0.00000000  0.00000000  0.50000000  1
  Zn  Zn27  1  0.00000000  0.50000000  0.50000000  1
  Zn  Zn28  1  0.50000000  0.00000000  0.50000000  1
  Zn  Zn29  1  0.50000000  0.50000000  0.50000000  1
  Pb  Pb30  2  0.00192823  0.75524435  0.48015557  1
  Pb  Pb31  2  0.06045210  0.19473758  0.60549921  1
  Pb  Pb32  2  0.07763467  0.68304484  0.64671367  1
  Pb  Pb33  2  0.08219872  0.66369213  0.06070743  1
  Pb  Pb34  2  0.10399330  0.64684921  0.31261516  1
  Pb  Pb35  2  0.10988053  0.62961188  0.72792901  1
  Pb  Pb36  2  0.12582692  0.11863058  0.76910330  1
  Pb  Pb37  2  0.13955002  0.10800717  0.18764617  1
  Pb  Pb38  2  0.18516914  0.55590740  0.89402824  1
  Pb  Pb39  2  0.19286203  0.06533956  0.85361288  1
  Pb  Pb40  2  0.25122597  0.50650483  0.98061403  1
  Pb  Pb41  2  0.26692472  0.99714873  0.02267377  1
  Pb  Pb42  2  0.26887424  0.98010291  0.43673982  1
  Pb  Pb43  2  0.29130531  0.95942919  0.68753833  1
  Pb  Pb44  2  0.29151273  0.94259616  0.10359246  1
  Pb  Pb45  2  0.32766048  0.42798738  0.14700361  1
  Pb  Pb46  2  0.32970036  0.41764710  0.56282455  1
  Pb  Pb47  2  0.35850602  0.37988805  0.22793735  1
  Pb  Pb48  2  0.37739315  0.86780403  0.27000407  1
  Pb  Pb49  2  0.43503412  0.81974119  0.35501749  1
  Pb  Pb50  2  0.45248403  0.30788476  0.39710664  1
  Pb  Pb51  2  0.45281443  0.29574064  0.81204148  1
  Pb  Pb52  2  0.48231034  0.25763012  0.47776411  1
  Pb  Pb53  2  0.48244892  0.27550684  0.06149995  1
