# generated using pymatgen
data_U(SiAu)6
_symmetry_space_group_name_H-M   Cmcm
_cell_length_a   7.83433143
_cell_length_b   41.15656809
_cell_length_c   5.98442564
_cell_angle_alpha   90.00000000
_cell_angle_beta   90.00000000
_cell_angle_gamma   90.00000000
_symmetry_Int_Tables_number   63
_chemical_formula_structural   U(SiAu)6
_chemical_formula_sum   'U8 Si48 Au48'
_cell_volume   1929.58346225
_cell_formula_units_Z   8
loop_
 _symmetry_equiv_pos_site_id
 _symmetry_equiv_pos_as_xyz
  1  'x, y, z'
  2  '-x, -y, -z'
  3  '-x, -y, z+1/2'
  4  'x, y, -z+1/2'
  5  'x, -y, -z'
  6  '-x, y, z'
  7  '-x, y, -z+1/2'
  8  'x, -y, z+1/2'
  9  'x+1/2, y+1/2, z'
  10  '-x+1/2, -y+1/2, -z'
  11  '-x+1/2, -y+1/2, z+1/2'
  12  'x+1/2, y+1/2, -z+1/2'
  13  'x+1/2, -y+1/2, -z'
  14  '-x+1/2, y+1/2, z'
  15  '-x+1/2, y+1/2, -z+1/2'
  16  'x+1/2, -y+1/2, z+1/2'
loop_
 _atom_site_type_symbol
 _atom_site_label
 _atom_site_symmetry_multiplicity
 _atom_site_fract_x
 _atom_site_fract_y
 _atom_site_fract_z
 _atom_site_occupancy
  U  U0  4  0.00000000  0.06490841  0.75000000  1
  U  U1  4  0.00000000  0.18847097  0.25000000  1
  Si  Si2  8  0.14252109  0.44350745  0.25000000  1
  Si  Si3  8  0.14289907  0.31313140  0.75000000  1
  Si  Si4  4  0.00000000  0.02187061  0.25000000  1
  Si  Si5  4  0.00000000  0.10552093  0.25000000  1
  Si  Si6  4  0.00000000  0.14691291  0.75000000  1
  Si  Si7  4  0.00000000  0.22579060  0.75000000  1
  Si  Si8  4  0.00000000  0.26713935  0.25000000  1
  Si  Si9  4  0.00000000  0.35574417  0.25000000  1
  Si  Si10  4  0.00000000  0.39632382  0.75000000  1
  Si  Si11  4  0.00000000  0.47867391  0.75000000  1
  Au  Au12  16  0.24728982  0.37451352  0.50028054  1
  Au  Au13  8  0.24535531  0.31228018  0.25000000  1
  Au  Au14  8  0.24826258  0.00000000  0.00000000  1
  Au  Au15  8  0.24856258  0.43710803  0.75000000  1
  Au  Au16  8  0.25000000  0.25000000  0.00000000  1
