# generated using pymatgen
data_U(SiMo)6
_symmetry_space_group_name_H-M   Cmcm
_cell_length_a   8.50830771
_cell_length_b   18.41772582
_cell_length_c   5.30400505
_cell_angle_alpha   90.00000000
_cell_angle_beta   90.00000000
_cell_angle_gamma   90.00000000
_symmetry_Int_Tables_number   63
_chemical_formula_structural   U(SiMo)6
_chemical_formula_sum   'U4 Si24 Mo24'
_cell_volume   831.15710278
_cell_formula_units_Z   4
loop_
 _symmetry_equiv_pos_site_id
 _symmetry_equiv_pos_as_xyz
  1  'x, y, z'
  2  '-x, -y, -z'
  3  '-x, -y, z+1/2'
  4  'x, y, -z+1/2'
  5  'x, -y, -z'
  6  '-x, y, z'
  7  '-x, y, -z+1/2'
  8  'x, -y, z+1/2'
  9  'x+1/2, y+1/2, z'
  10  '-x+1/2, -y+1/2, -z'
  11  '-x+1/2, -y+1/2, z+1/2'
  12  'x+1/2, y+1/2, -z+1/2'
  13  'x+1/2, -y+1/2, -z'
  14  '-x+1/2, y+1/2, z'
  15  '-x+1/2, y+1/2, -z+1/2'
  16  'x+1/2, -y+1/2, z+1/2'
loop_
 _atom_site_type_symbol
 _atom_site_label
 _atom_site_symmetry_multiplicity
 _atom_site_fract_x
 _atom_site_fract_y
 _atom_site_fract_z
 _atom_site_occupancy
  U  U0  4  0.00000000  0.12459381  0.25000000  1
  Si  Si1  8  0.16516842  0.37613086  0.75000000  1
  Si  Si2  4  0.00000000  0.04154011  0.75000000  1
  Si  Si3  4  0.00000000  0.20386514  0.75000000  1
  Si  Si4  4  0.00000000  0.28765077  0.25000000  1
  Si  Si5  4  0.00000000  0.45770868  0.25000000  1
  Mo  Mo6  8  0.24735935  0.50000000  0.00000000  1
  Mo  Mo7  8  0.24742568  0.37496513  0.25000000  1
  Mo  Mo8  8  0.25000000  0.25000000  0.00000000  1
