# generated using pymatgen
data_U(SnHg)6
_symmetry_space_group_name_H-M   P2_1/m
_cell_length_a   7.75212679
_cell_length_b   5.71383866
_cell_length_c   19.84369798
_cell_angle_alpha   90.00000000
_cell_angle_beta   94.13391851
_cell_angle_gamma   90.00000000
_symmetry_Int_Tables_number   11
_chemical_formula_structural   U(SnHg)6
_chemical_formula_sum   'U2 Sn12 Hg12'
_cell_volume   876.67791307
_cell_formula_units_Z   2
loop_
 _symmetry_equiv_pos_site_id
 _symmetry_equiv_pos_as_xyz
  1  'x, y, z'
  2  '-x, -y, -z'
  3  '-x, y+1/2, -z'
  4  'x, -y+1/2, z'
loop_
 _atom_site_type_symbol
 _atom_site_label
 _atom_site_symmetry_multiplicity
 _atom_site_fract_x
 _atom_site_fract_y
 _atom_site_fract_z
 _atom_site_occupancy
  U  U0  2  0.30100296  0.25000000  0.09010592  1
  Sn  Sn1  2  0.00603500  0.25000000  0.20203477  1
  Sn  Sn2  2  0.14288151  0.75000000  0.13718484  1
  Sn  Sn3  2  0.18897284  0.25000000  0.80244569  1
  Sn  Sn4  2  0.26024276  0.25000000  0.41963439  1
  Sn  Sn5  2  0.42205188  0.75000000  0.49280195  1
  Sn  Sn6  2  0.44354626  0.75000000  0.03370121  1
  Hg  Hg7  4  0.47565965  0.00016960  0.21959343  1
  Hg  Hg8  2  0.00000000  0.00000000  0.00000000  1
  Hg  Hg9  2  0.00000000  0.00000000  0.50000000  1
  Hg  Hg10  2  0.24917904  0.75000000  0.36845365  1
  Hg  Hg11  2  0.29920952  0.75000000  0.88192814  1
