# generated using pymatgen
data_U(FeGe)6
_symmetry_space_group_name_H-M   Immm
_cell_length_a   5.09014941
_cell_length_b   8.08655051
_cell_length_c   26.36085879
_cell_angle_alpha   90.00000000
_cell_angle_beta   90.00000000
_cell_angle_gamma   90.00000000
_symmetry_Int_Tables_number   71
_chemical_formula_structural   U(FeGe)6
_chemical_formula_sum   'U6 Fe36 Ge36'
_cell_volume   1085.05908676
_cell_formula_units_Z   6
loop_
 _symmetry_equiv_pos_site_id
 _symmetry_equiv_pos_as_xyz
  1  'x, y, z'
  2  '-x, -y, -z'
  3  '-x, -y, z'
  4  'x, y, -z'
  5  'x, -y, -z'
  6  '-x, y, z'
  7  '-x, y, -z'
  8  'x, -y, z'
  9  'x+1/2, y+1/2, z+1/2'
  10  '-x+1/2, -y+1/2, -z+1/2'
  11  '-x+1/2, -y+1/2, z+1/2'
  12  'x+1/2, y+1/2, -z+1/2'
  13  'x+1/2, -y+1/2, -z+1/2'
  14  '-x+1/2, y+1/2, z+1/2'
  15  '-x+1/2, y+1/2, -z+1/2'
  16  'x+1/2, -y+1/2, z+1/2'
loop_
 _atom_site_type_symbol
 _atom_site_label
 _atom_site_symmetry_multiplicity
 _atom_site_fract_x
 _atom_site_fract_y
 _atom_site_fract_z
 _atom_site_occupancy
  U  U0  4  0.00000000  0.50000000  0.16817779  1
  U  U1  2  0.00000000  0.00000000  0.50000000  1
  Fe  Fe2  16  0.24942272  0.24427169  0.41684948  1
  Fe  Fe3  8  0.00000000  0.24697418  0.33312563  1
  Fe  Fe4  8  0.25000000  0.25000000  0.25000000  1
  Fe  Fe5  4  0.00000000  0.25520865  0.00000000  1
  Ge  Ge6  8  0.00000000  0.15233574  0.16618278  1
  Ge  Ge7  4  0.00000000  0.00000000  0.05577126  1
  Ge  Ge8  4  0.00000000  0.00000000  0.27621758  1
  Ge  Ge9  4  0.00000000  0.00000000  0.38821068  1
  Ge  Ge10  4  0.00000000  0.34755567  0.50000000  1
  Ge  Ge11  4  0.00000000  0.50000000  0.05582835  1
  Ge  Ge12  4  0.00000000  0.50000000  0.27930533  1
  Ge  Ge13  4  0.00000000  0.50000000  0.38968201  1
