# generated using pymatgen
data_U(MnPb)6
_symmetry_space_group_name_H-M   Cmmm
_cell_length_a   5.72673143
_cell_length_b   49.61080146
_cell_length_c   9.94781212
_cell_angle_alpha   90.00000000
_cell_angle_beta   90.00000000
_cell_angle_gamma   90.00000000
_symmetry_Int_Tables_number   65
_chemical_formula_structural   U(MnPb)6
_chemical_formula_sum   'U10 Mn60 Pb60'
_cell_volume   2826.25037828
_cell_formula_units_Z   10
loop_
 _symmetry_equiv_pos_site_id
 _symmetry_equiv_pos_as_xyz
  1  'x, y, z'
  2  '-x, -y, -z'
  3  '-x, -y, z'
  4  'x, y, -z'
  5  'x, -y, -z'
  6  '-x, y, z'
  7  '-x, y, -z'
  8  'x, -y, z'
  9  'x+1/2, y+1/2, z'
  10  '-x+1/2, -y+1/2, -z'
  11  '-x+1/2, -y+1/2, z'
  12  'x+1/2, y+1/2, -z'
  13  'x+1/2, -y+1/2, -z'
  14  '-x+1/2, y+1/2, z'
  15  '-x+1/2, y+1/2, -z'
  16  'x+1/2, -y+1/2, z'
loop_
 _atom_site_type_symbol
 _atom_site_label
 _atom_site_symmetry_multiplicity
 _atom_site_fract_x
 _atom_site_fract_y
 _atom_site_fract_z
 _atom_site_occupancy
  U  U0  4  0.00000000  0.19968027  0.50000000  1
  U  U1  4  0.00000000  0.39967366  0.00000000  1
  U  U2  2  0.00000000  0.00000000  0.00000000  1
  Mn  Mn3  16  0.24997344  0.04999820  0.24709226  1
  Mn  Mn4  16  0.24999916  0.34999953  0.25000093  1
  Mn  Mn5  8  0.00000000  0.09999967  0.24619552  1
  Mn  Mn6  8  0.00000000  0.29999868  0.25382420  1
  Mn  Mn7  8  0.25000000  0.25000000  0.25287549  1
  Mn  Mn8  4  0.00000000  0.50000000  0.24695903  1
  Pb  Pb9  8  0.00000000  0.20001511  0.17652537  1
  Pb  Pb10  8  0.00000000  0.40001370  0.32347788  1
  Pb  Pb11  4  0.00000000  0.00000000  0.32351826  1
  Pb  Pb12  4  0.00000000  0.06670110  0.00000000  1
  Pb  Pb13  4  0.00000000  0.06673263  0.50000000  1
  Pb  Pb14  4  0.00000000  0.13316669  0.50000000  1
  Pb  Pb15  4  0.00000000  0.13350866  0.00000000  1
  Pb  Pb16  4  0.00000000  0.26665864  0.50000000  1
  Pb  Pb17  4  0.00000000  0.26674124  0.00000000  1
  Pb  Pb18  4  0.00000000  0.33316575  0.00000000  1
  Pb  Pb19  4  0.00000000  0.33350059  0.50000000  1
  Pb  Pb20  4  0.00000000  0.46665108  0.00000000  1
  Pb  Pb21  4  0.00000000  0.46675797  0.50000000  1
