# generated using pymatgen
data_U(SnHg)6
_symmetry_space_group_name_H-M   P-1
_cell_length_a   6.05452947
_cell_length_b   12.94417539
_cell_length_c   39.12661044
_cell_angle_alpha   81.65700075
_cell_angle_beta   89.63989973
_cell_angle_gamma   86.15219041
_symmetry_Int_Tables_number   2
_chemical_formula_structural   U(SnHg)6
_chemical_formula_sum   'U8 Sn48 Hg48'
_cell_volume   3027.07874322
_cell_formula_units_Z   8
loop_
 _symmetry_equiv_pos_site_id
 _symmetry_equiv_pos_as_xyz
  1  'x, y, z'
  2  '-x, -y, -z'
loop_
 _atom_site_type_symbol
 _atom_site_label
 _atom_site_symmetry_multiplicity
 _atom_site_fract_x
 _atom_site_fract_y
 _atom_site_fract_z
 _atom_site_occupancy
  U  U0  2  0.09407204  0.03158544  0.31241616  1
  U  U1  2  0.26646821  0.08213861  0.93874769  1
  U  U2  2  0.35528767  0.79053397  0.81053999  1
  U  U3  2  0.45699522  0.14559840  0.56500928  1
  Sn  Sn4  2  0.02678069  0.44622646  0.80910284  1
  Sn  Sn5  2  0.03504180  0.90571190  0.39553391  1
  Sn  Sn6  2  0.04182394  0.25730630  0.06522634  1
  Sn  Sn7  2  0.05031973  0.80416849  0.47208992  1
  Sn  Sn8  2  0.07887220  0.47029540  0.35503471  1
  Sn  Sn9  2  0.10910122  0.59210332  0.26999442  1
  Sn  Sn10  2  0.13601870  0.25720324  0.15214219  1
  Sn  Sn11  2  0.14529418  0.81272768  0.55926298  1
  Sn  Sn12  2  0.15254209  0.15722366  0.22909825  1
  Sn  Sn13  2  0.21262183  0.50620144  0.43410916  1
  Sn  Sn14  2  0.22713546  0.97212697  0.02194007  1
  Sn  Sn15  2  0.23555379  0.31328377  0.69005586  1
  Sn  Sn16  2  0.23680544  0.86158215  0.09767423  1
  Sn  Sn17  2  0.27935086  0.54522396  0.97973689  1
  Sn  Sn18  2  0.29169583  0.66219154  0.89037489  1
  Sn  Sn19  2  0.32141804  0.20242175  0.85905533  1
  Sn  Sn20  2  0.33285645  0.87448307  0.18480738  1
  Sn  Sn21  2  0.36125182  0.34244119  0.77018276  1
  Sn  Sn22  2  0.39368352  0.56143065  0.05863954  1
  Sn  Sn23  2  0.39997634  0.02240158  0.64783465  1
  Sn  Sn24  2  0.41198800  0.91421048  0.72740403  1
  Sn  Sn25  2  0.42324506  0.37593907  0.31497014  1
  Sn  Sn26  2  0.45071466  0.59607400  0.60463115  1
  Sn  Sn27  2  0.48330836  0.73173000  0.51510335  1
  Hg  Hg28  2  0.02416057  0.31447327  0.93559867  1
  Hg  Hg29  2  0.05584808  0.67661367  0.37448014  1
  Hg  Hg30  2  0.06898827  0.17731996  0.37366773  1
  Hg  Hg31  2  0.11039575  0.02283984  0.81128009  1
  Hg  Hg32  2  0.11779637  0.88459063  0.25151015  1
  Hg  Hg33  2  0.13181537  0.38570310  0.25046012  1
  Hg  Hg34  2  0.14440207  0.73128485  0.68872978  1
  Hg  Hg35  2  0.17430109  0.05672218  0.12394672  1
  Hg  Hg36  2  0.19839159  0.57483438  0.12562114  1
  Hg  Hg37  2  0.22907509  0.39200134  0.56152498  1
  Hg  Hg38  2  0.24180686  0.22568142  0.99847139  1
  Hg  Hg39  2  0.25498388  0.74701692  0.99966955  1
  Hg  Hg40  2  0.29861556  0.08721238  0.43671796  1
  Hg  Hg41  2  0.30730138  0.43294267  0.87547807  1
  Hg  Hg42  2  0.31960681  0.94250462  0.87466399  1
  Hg  Hg43  2  0.33207225  0.79388182  0.31374414  1
  Hg  Hg44  2  0.36864929  0.63564807  0.75169249  1
  Hg  Hg45  2  0.38330209  0.13845241  0.75007322  1
  Hg  Hg46  2  0.41661466  0.45396480  0.18606236  1
  Hg  Hg47  2  0.42922527  0.79881811  0.62475472  1
  Hg  Hg48  2  0.44421820  0.30166994  0.62347707  1
  Hg  Hg49  2  0.47033609  0.13554539  0.06113486  1
  Hg  Hg50  1  0.00000000  0.00000000  0.50000000  1
  Hg  Hg51  1  0.00000000  0.50000000  0.50000000  1
  Hg  Hg52  1  0.50000000  0.00000000  0.50000000  1
  Hg  Hg53  1  0.50000000  0.50000000  0.50000000  1
