# generated using pymatgen
data_Zr6USi6
_symmetry_space_group_name_H-M   Cmcm
_cell_length_a   8.88127426
_cell_length_b   40.58133230
_cell_length_c   5.91907881
_cell_angle_alpha   90.00000000
_cell_angle_beta   90.00000000
_cell_angle_gamma   90.00000000
_symmetry_Int_Tables_number   63
_chemical_formula_structural   Zr6USi6
_chemical_formula_sum   'Zr48 U8 Si48'
_cell_volume   2133.31852653
_cell_formula_units_Z   8
loop_
 _symmetry_equiv_pos_site_id
 _symmetry_equiv_pos_as_xyz
  1  'x, y, z'
  2  '-x, -y, -z'
  3  '-x, -y, z+1/2'
  4  'x, y, -z+1/2'
  5  'x, -y, -z'
  6  '-x, y, z'
  7  '-x, y, -z+1/2'
  8  'x, -y, z+1/2'
  9  'x+1/2, y+1/2, z'
  10  '-x+1/2, -y+1/2, -z'
  11  '-x+1/2, -y+1/2, z+1/2'
  12  'x+1/2, y+1/2, -z+1/2'
  13  'x+1/2, -y+1/2, -z'
  14  '-x+1/2, y+1/2, z'
  15  '-x+1/2, y+1/2, -z+1/2'
  16  'x+1/2, -y+1/2, z+1/2'
loop_
 _atom_site_type_symbol
 _atom_site_label
 _atom_site_symmetry_multiplicity
 _atom_site_fract_x
 _atom_site_fract_y
 _atom_site_fract_z
 _atom_site_occupancy
  Zr  Zr0  16  0.24407194  0.37487660  0.50082940  1
  Zr  Zr1  8  0.24052704  0.06250404  0.25000000  1
  Zr  Zr2  8  0.24293612  0.31251092  0.25000000  1
  Zr  Zr3  8  0.24578249  0.50000000  0.00000000  1
  Zr  Zr4  8  0.25000000  0.25000000  0.00000000  1
  U  U5  4  0.00000000  0.06334195  0.75000000  1
  U  U6  4  0.00000000  0.18722565  0.25000000  1
  Si  Si7  8  0.17622933  0.31218348  0.75000000  1
  Si  Si8  8  0.17891612  0.43769957  0.25000000  1
  Si  Si9  4  0.00000000  0.01915595  0.25000000  1
  Si  Si10  4  0.00000000  0.10635950  0.25000000  1
  Si  Si11  4  0.00000000  0.14632933  0.75000000  1
  Si  Si12  4  0.00000000  0.22516769  0.75000000  1
  Si  Si13  4  0.00000000  0.26764573  0.25000000  1
  Si  Si14  4  0.00000000  0.35390194  0.25000000  1
  Si  Si15  4  0.00000000  0.40008978  0.75000000  1
  Si  Si16  4  0.00000000  0.47548119  0.75000000  1
