# generated using pymatgen
data_U(MnSi)6
_symmetry_space_group_name_H-M   Cmcm
_cell_length_a   7.99334611
_cell_length_b   16.98815318
_cell_length_c   4.81857369
_cell_angle_alpha   90.00000000
_cell_angle_beta   90.00000000
_cell_angle_gamma   90.00000000
_symmetry_Int_Tables_number   63
_chemical_formula_structural   U(MnSi)6
_chemical_formula_sum   'U4 Mn24 Si24'
_cell_volume   654.32466501
_cell_formula_units_Z   4
loop_
 _symmetry_equiv_pos_site_id
 _symmetry_equiv_pos_as_xyz
  1  'x, y, z'
  2  '-x, -y, -z'
  3  '-x, -y, z+1/2'
  4  'x, y, -z+1/2'
  5  'x, -y, -z'
  6  '-x, y, z'
  7  '-x, y, -z+1/2'
  8  'x, -y, z+1/2'
  9  'x+1/2, y+1/2, z'
  10  '-x+1/2, -y+1/2, -z'
  11  '-x+1/2, -y+1/2, z+1/2'
  12  'x+1/2, y+1/2, -z+1/2'
  13  'x+1/2, -y+1/2, -z'
  14  '-x+1/2, y+1/2, z'
  15  '-x+1/2, y+1/2, -z+1/2'
  16  'x+1/2, -y+1/2, z+1/2'
loop_
 _atom_site_type_symbol
 _atom_site_label
 _atom_site_symmetry_multiplicity
 _atom_site_fract_x
 _atom_site_fract_y
 _atom_site_fract_z
 _atom_site_occupancy
  U  U0  4  0.00000000  0.13205021  0.25000000  1
  Mn  Mn1  8  0.24250124  0.12533197  0.75000000  1
  Mn  Mn2  8  0.24621302  0.50000000  0.00000000  1
  Mn  Mn3  8  0.25000000  0.25000000  0.00000000  1
  Si  Si4  8  0.14921781  0.37684094  0.75000000  1
  Si  Si5  4  0.00000000  0.03848717  0.75000000  1
  Si  Si6  4  0.00000000  0.22240189  0.75000000  1
  Si  Si7  4  0.00000000  0.30169833  0.25000000  1
  Si  Si8  4  0.00000000  0.45690391  0.25000000  1
