# generated using pymatgen
data_U(GeMo)6
_symmetry_space_group_name_H-M   Cmcm
_cell_length_a   8.73456763
_cell_length_b   74.70119879
_cell_length_c   5.38726420
_cell_angle_alpha   90.00000000
_cell_angle_beta   90.00000000
_cell_angle_gamma   90.00000000
_symmetry_Int_Tables_number   63
_chemical_formula_structural   U(GeMo)6
_chemical_formula_sum   'U16 Ge96 Mo96'
_cell_volume   3515.09654053
_cell_formula_units_Z   16
loop_
 _symmetry_equiv_pos_site_id
 _symmetry_equiv_pos_as_xyz
  1  'x, y, z'
  2  '-x, -y, -z'
  3  '-x, -y, z+1/2'
  4  'x, y, -z+1/2'
  5  'x, -y, -z'
  6  '-x, y, z'
  7  '-x, y, -z+1/2'
  8  'x, -y, z+1/2'
  9  'x+1/2, y+1/2, z'
  10  '-x+1/2, -y+1/2, -z'
  11  '-x+1/2, -y+1/2, z+1/2'
  12  'x+1/2, y+1/2, -z+1/2'
  13  'x+1/2, -y+1/2, -z'
  14  '-x+1/2, y+1/2, z'
  15  '-x+1/2, y+1/2, -z+1/2'
  16  'x+1/2, -y+1/2, z+1/2'
loop_
 _atom_site_type_symbol
 _atom_site_label
 _atom_site_symmetry_multiplicity
 _atom_site_fract_x
 _atom_site_fract_y
 _atom_site_fract_z
 _atom_site_occupancy
  U  U0  4  0.00000000  0.09369243  0.25000000  1
  U  U1  4  0.00000000  0.15623842  0.75000000  1
  U  U2  4  0.00000000  0.21862465  0.25000000  1
  U  U3  4  0.00000000  0.46867605  0.25000000  1
  Ge  Ge4  8  0.16190861  0.28114855  0.75000000  1
  Ge  Ge5  8  0.16199967  0.03124937  0.75000000  1
  Ge  Ge6  8  0.16210701  0.40620096  0.75000000  1
  Ge  Ge7  8  0.16249053  0.34376375  0.25000000  1
  Ge  Ge8  4  0.00000000  0.01031715  0.25000000  1
  Ge  Ge9  4  0.00000000  0.05258271  0.25000000  1
  Ge  Ge10  4  0.00000000  0.07333668  0.75000000  1
  Ge  Ge11  4  0.00000000  0.11455220  0.75000000  1
  Ge  Ge12  4  0.00000000  0.13540157  0.25000000  1
  Ge  Ge13  4  0.00000000  0.17706812  0.25000000  1
  Ge  Ge14  4  0.00000000  0.19791233  0.75000000  1
  Ge  Ge15  4  0.00000000  0.23881345  0.75000000  1
  Ge  Ge16  4  0.00000000  0.25951173  0.25000000  1
  Ge  Ge17  4  0.00000000  0.30214869  0.25000000  1
  Ge  Ge18  4  0.00000000  0.32289667  0.75000000  1
  Ge  Ge19  4  0.00000000  0.36459206  0.75000000  1
  Ge  Ge20  4  0.00000000  0.38536438  0.25000000  1
  Ge  Ge21  4  0.00000000  0.42755846  0.25000000  1
  Ge  Ge22  4  0.00000000  0.44832728  0.75000000  1
  Ge  Ge23  4  0.00000000  0.48959383  0.75000000  1
  Mo  Mo24  16  0.24782135  0.31248349  0.50002181  1
  Mo  Mo25  16  0.24785023  0.37499653  0.00002186  1
  Mo  Mo26  16  0.24866244  0.56248425  0.50019746  1
  Mo  Mo27  8  0.24678869  0.28124488  0.25000000  1
  Mo  Mo28  8  0.24795805  0.65625777  0.25000000  1
  Mo  Mo29  8  0.24843871  0.40625020  0.25000000  1
  Mo  Mo30  8  0.24860127  0.46873531  0.75000000  1
  Mo  Mo31  8  0.24936966  0.50000000  0.00000000  1
  Mo  Mo32  8  0.25000000  0.25000000  0.00000000  1
