# generated using pymatgen
data_U(SiTc)6
_symmetry_space_group_name_H-M   Cmcm
_cell_length_a   7.92079878
_cell_length_b   73.89724491
_cell_length_c   5.32102480
_cell_angle_alpha   90.00000000
_cell_angle_beta   90.00000000
_cell_angle_gamma   90.00000000
_symmetry_Int_Tables_number   63
_chemical_formula_structural   U(SiTc)6
_chemical_formula_sum   'U16 Si96 Tc96'
_cell_volume   3114.52994434
_cell_formula_units_Z   16
loop_
 _symmetry_equiv_pos_site_id
 _symmetry_equiv_pos_as_xyz
  1  'x, y, z'
  2  '-x, -y, -z'
  3  '-x, -y, z+1/2'
  4  'x, y, -z+1/2'
  5  'x, -y, -z'
  6  '-x, y, z'
  7  '-x, y, -z+1/2'
  8  'x, -y, z+1/2'
  9  'x+1/2, y+1/2, z'
  10  '-x+1/2, -y+1/2, -z'
  11  '-x+1/2, -y+1/2, z+1/2'
  12  'x+1/2, y+1/2, -z+1/2'
  13  'x+1/2, -y+1/2, -z'
  14  '-x+1/2, y+1/2, z'
  15  '-x+1/2, y+1/2, -z+1/2'
  16  'x+1/2, -y+1/2, z+1/2'
loop_
 _atom_site_type_symbol
 _atom_site_label
 _atom_site_symmetry_multiplicity
 _atom_site_fract_x
 _atom_site_fract_y
 _atom_site_fract_z
 _atom_site_occupancy
  U  U0  4  0.00000000  0.03132400  0.25000000  1
  U  U1  4  0.00000000  0.28141006  0.25000000  1
  U  U2  4  0.00000000  0.34374357  0.75000000  1
  U  U3  4  0.00000000  0.40634558  0.25000000  1
  Tc  Tc4  16  0.24338106  0.12502059  0.00002885  1
  Tc  Tc5  16  0.24373590  0.18752511  0.50006346  1
  Tc  Tc6  16  0.24638816  0.06253769  0.00029778  1
  Si  Si7  8  0.15742256  0.15621537  0.25000000  1
  Si  Si8  8  0.15773648  0.09412876  0.75000000  1
  Si  Si9  8  0.15798325  0.21851254  0.75000000  1
  Si  Si10  8  0.15839709  0.46888749  0.75000000  1
  Tc  Tc11  8  0.24036561  0.21877670  0.25000000  1
  Tc  Tc12  8  0.24328742  0.15625966  0.75000000  1
  Tc  Tc13  8  0.24388010  0.09382004  0.25000000  1
  Tc  Tc14  8  0.24899697  0.50000000  0.00000000  1
  Tc  Tc15  8  0.24939059  0.03126663  0.75000000  1
  Tc  Tc16  8  0.25000000  0.25000000  0.00000000  1
  Si  Si17  4  0.00000000  0.01045817  0.75000000  1
  Si  Si18  4  0.00000000  0.05183459  0.75000000  1
  Si  Si19  4  0.00000000  0.07272099  0.25000000  1
  Si  Si20  4  0.00000000  0.11457531  0.25000000  1
  Si  Si21  4  0.00000000  0.13541299  0.75000000  1
  Si  Si22  4  0.00000000  0.17709253  0.75000000  1
  Si  Si23  4  0.00000000  0.19779038  0.25000000  1
  Si  Si24  4  0.00000000  0.24023050  0.25000000  1
  Si  Si25  4  0.00000000  0.26104344  0.75000000  1
  Si  Si26  4  0.00000000  0.30198816  0.75000000  1
  Si  Si27  4  0.00000000  0.32295542  0.25000000  1
  Si  Si28  4  0.00000000  0.36459133  0.25000000  1
  Si  Si29  4  0.00000000  0.38546779  0.75000000  1
  Si  Si30  4  0.00000000  0.42672316  0.75000000  1
  Si  Si31  4  0.00000000  0.44758684  0.25000000  1
  Si  Si32  4  0.00000000  0.48966490  0.25000000  1
