# generated using pymatgen
data_U(SnIr)6
_symmetry_space_group_name_H-M   Cmmm
_cell_length_a   5.56481919
_cell_length_b   48.19378832
_cell_length_c   9.05656097
_cell_angle_alpha   90.00000000
_cell_angle_beta   90.00000000
_cell_angle_gamma   90.00000000
_symmetry_Int_Tables_number   65
_chemical_formula_structural   U(SnIr)6
_chemical_formula_sum   'U10 Sn60 Ir60'
_cell_volume   2428.87653279
_cell_formula_units_Z   10
loop_
 _symmetry_equiv_pos_site_id
 _symmetry_equiv_pos_as_xyz
  1  'x, y, z'
  2  '-x, -y, -z'
  3  '-x, -y, z'
  4  'x, y, -z'
  5  'x, -y, -z'
  6  '-x, y, z'
  7  '-x, y, -z'
  8  'x, -y, z'
  9  'x+1/2, y+1/2, z'
  10  '-x+1/2, -y+1/2, -z'
  11  '-x+1/2, -y+1/2, z'
  12  'x+1/2, y+1/2, -z'
  13  'x+1/2, -y+1/2, -z'
  14  '-x+1/2, y+1/2, z'
  15  '-x+1/2, y+1/2, -z'
  16  'x+1/2, -y+1/2, z'
loop_
 _atom_site_type_symbol
 _atom_site_label
 _atom_site_symmetry_multiplicity
 _atom_site_fract_x
 _atom_site_fract_y
 _atom_site_fract_z
 _atom_site_occupancy
  U  U0  4  0.00000000  0.10006468  0.00000000  1
  U  U1  4  0.00000000  0.30008155  0.50000000  1
  U  U2  2  0.00000000  0.50000000  0.00000000  1
  Sn  Sn3  8  0.00000000  0.10006217  0.32995648  1
  Sn  Sn4  8  0.00000000  0.30004697  0.17004541  1
  Sn  Sn5  4  0.00000000  0.03322178  0.50000000  1
  Sn  Sn6  4  0.00000000  0.03330771  0.00000000  1
  Sn  Sn7  4  0.00000000  0.16660145  0.50000000  1
  Sn  Sn8  4  0.00000000  0.16671163  0.00000000  1
  Sn  Sn9  4  0.00000000  0.23317443  0.00000000  1
  Sn  Sn10  4  0.00000000  0.23332796  0.50000000  1
  Sn  Sn11  4  0.00000000  0.36659738  0.00000000  1
  Sn  Sn12  4  0.00000000  0.36670903  0.50000000  1
  Sn  Sn13  4  0.00000000  0.43315744  0.50000000  1
  Sn  Sn14  4  0.00000000  0.43331034  0.00000000  1
  Sn  Sn15  4  0.00000000  0.50000000  0.32950495  1
  Ir  Ir16  16  0.24991424  0.05002392  0.24742836  1
  Ir  Ir17  16  0.24999999  0.15000216  0.24999813  1
  Ir  Ir18  8  0.00000000  0.19995599  0.25526302  1
  Ir  Ir19  8  0.00000000  0.39994921  0.24471047  1
  Ir  Ir20  8  0.25000000  0.25000000  0.25254211  1
  Ir  Ir21  4  0.00000000  0.00000000  0.24752340  1
