# generated using pymatgen
data_U(GeAu)6
_symmetry_space_group_name_H-M   C2/c
_cell_length_a   10.42904130
_cell_length_b   37.65593460
_cell_length_c   5.99235717
_cell_angle_alpha   90.00000000
_cell_angle_beta   117.12676708
_cell_angle_gamma   90.00000000
_symmetry_Int_Tables_number   15
_chemical_formula_structural   U(GeAu)6
_chemical_formula_sum   'U8 Ge48 Au48'
_cell_volume   2094.42812873
_cell_formula_units_Z   8
loop_
 _symmetry_equiv_pos_site_id
 _symmetry_equiv_pos_as_xyz
  1  'x, y, z'
  2  '-x, -y, -z'
  3  '-x, y, -z+1/2'
  4  'x, -y, z+1/2'
  5  'x+1/2, y+1/2, z'
  6  '-x+1/2, -y+1/2, -z'
  7  '-x+1/2, y+1/2, -z+1/2'
  8  'x+1/2, -y+1/2, z+1/2'
loop_
 _atom_site_type_symbol
 _atom_site_label
 _atom_site_symmetry_multiplicity
 _atom_site_fract_x
 _atom_site_fract_y
 _atom_site_fract_z
 _atom_site_occupancy
  U  U0  4  0.00000000  0.06353795  0.25000000  1
  U  U1  4  0.00000000  0.18869838  0.75000000  1
  Ge  Ge2  8  0.15094464  0.31222364  0.24154520  1
  Ge  Ge3  8  0.17469227  0.55711145  0.22859719  1
  Ge  Ge4  4  0.00000000  0.02718283  0.75000000  1
  Ge  Ge5  4  0.00000000  0.10085051  0.75000000  1
  Ge  Ge6  4  0.00000000  0.15044721  0.25000000  1
  Ge  Ge7  4  0.00000000  0.22015310  0.25000000  1
  Ge  Ge8  4  0.00000000  0.27637292  0.75000000  1
  Ge  Ge9  4  0.00000000  0.34696743  0.75000000  1
  Ge  Ge10  4  0.00000000  0.40471392  0.25000000  1
  Ge  Ge11  4  0.00000000  0.46929385  0.25000000  1
  Au  Au12  8  0.24662915  0.37569491  0.48859497  1
  Au  Au13  8  0.24903920  0.43670042  0.22343242  1
  Au  Au14  8  0.24913997  0.62694307  0.49195972  1
  Au  Au15  8  0.24928669  0.00236826  0.50155404  1
  Au  Au16  8  0.24975163  0.68768249  0.23028438  1
  Au  Au17  4  0.25000000  0.25000000  0.00000000  1
  Au  Au18  4  0.25000000  0.25000000  0.50000000  1
