# generated using pymatgen
data_U(FePb)6
_symmetry_space_group_name_H-M   Cmcm
_cell_length_a   9.60429179
_cell_length_b   75.34602636
_cell_length_c   5.41728587
_cell_angle_alpha   90.00000000
_cell_angle_beta   90.00000000
_cell_angle_gamma   90.00000000
_symmetry_Int_Tables_number   63
_chemical_formula_structural   U(FePb)6
_chemical_formula_sum   'U16 Fe96 Pb96'
_cell_volume   3920.19303632
_cell_formula_units_Z   16
loop_
 _symmetry_equiv_pos_site_id
 _symmetry_equiv_pos_as_xyz
  1  'x, y, z'
  2  '-x, -y, -z'
  3  '-x, -y, z+1/2'
  4  'x, y, -z+1/2'
  5  'x, -y, -z'
  6  '-x, y, z'
  7  '-x, y, -z+1/2'
  8  'x, -y, z+1/2'
  9  'x+1/2, y+1/2, z'
  10  '-x+1/2, -y+1/2, -z'
  11  '-x+1/2, -y+1/2, z+1/2'
  12  'x+1/2, y+1/2, -z+1/2'
  13  'x+1/2, -y+1/2, -z'
  14  '-x+1/2, y+1/2, z'
  15  '-x+1/2, y+1/2, -z+1/2'
  16  'x+1/2, -y+1/2, z+1/2'
loop_
 _atom_site_type_symbol
 _atom_site_label
 _atom_site_symmetry_multiplicity
 _atom_site_fract_x
 _atom_site_fract_y
 _atom_site_fract_z
 _atom_site_occupancy
  U  U0  4  0.00000000  0.09377615  0.75000000  1
  U  U1  4  0.00000000  0.15628053  0.25000000  1
  U  U2  4  0.00000000  0.21899775  0.75000000  1
  U  U3  4  0.00000000  0.46852899  0.75000000  1
  Fe  Fe4  16  0.24631665  0.87507455  0.00000436  1
  Fe  Fe5  16  0.24656556  0.81248748  0.50053291  1
  Fe  Fe6  16  0.24683053  0.43775027  0.50435660  1
  Fe  Fe7  8  0.24077700  0.46852367  0.25000000  1
  Fe  Fe8  8  0.24248201  0.50000000  0.00000000  1
  Fe  Fe9  8  0.24480178  0.09399954  0.25000000  1
  Fe  Fe10  8  0.24482355  0.78131248  0.75000000  1
  Fe  Fe11  8  0.24594931  0.15624715  0.75000000  1
  Fe  Fe12  8  0.25000000  0.25000000  0.00000000  1
  Pb  Pb13  8  0.18376267  0.34377965  0.75000000  1
  Pb  Pb14  8  0.18410996  0.96904061  0.75000000  1
  Pb  Pb15  8  0.18418579  0.28128754  0.25000000  1
  Pb  Pb16  8  0.18421187  0.40630141  0.25000000  1
  Pb  Pb17  4  0.00000000  0.01036523  0.75000000  1
  Pb  Pb18  4  0.00000000  0.05173400  0.75000000  1
  Pb  Pb19  4  0.00000000  0.07251184  0.25000000  1
  Pb  Pb20  4  0.00000000  0.11453904  0.25000000  1
  Pb  Pb21  4  0.00000000  0.13544272  0.75000000  1
  Pb  Pb22  4  0.00000000  0.17717949  0.75000000  1
  Pb  Pb23  4  0.00000000  0.19796725  0.25000000  1
  Pb  Pb24  4  0.00000000  0.23986225  0.25000000  1
  Pb  Pb25  4  0.00000000  0.26073893  0.75000000  1
  Pb  Pb26  4  0.00000000  0.30207059  0.75000000  1
  Pb  Pb27  4  0.00000000  0.32292325  0.25000000  1
  Pb  Pb28  4  0.00000000  0.36455409  0.25000000  1
  Pb  Pb29  4  0.00000000  0.38527783  0.75000000  1
  Pb  Pb30  4  0.00000000  0.42650613  0.75000000  1
  Pb  Pb31  4  0.00000000  0.44743531  0.25000000  1
  Pb  Pb32  4  0.00000000  0.48952100  0.25000000  1
