# generated using pymatgen
data_Hf6UPb6
_symmetry_space_group_name_H-M   Cmmm
_cell_length_a   6.03756248
_cell_length_b   52.51190788
_cell_length_c   10.37227909
_cell_angle_alpha   90.00000000
_cell_angle_beta   90.00000000
_cell_angle_gamma   90.00000000
_symmetry_Int_Tables_number   65
_chemical_formula_structural   Hf6UPb6
_chemical_formula_sum   'Hf60 U10 Pb60'
_cell_volume   3288.46807374
_cell_formula_units_Z   10
loop_
 _symmetry_equiv_pos_site_id
 _symmetry_equiv_pos_as_xyz
  1  'x, y, z'
  2  '-x, -y, -z'
  3  '-x, -y, z'
  4  'x, y, -z'
  5  'x, -y, -z'
  6  '-x, y, z'
  7  '-x, y, -z'
  8  'x, -y, z'
  9  'x+1/2, y+1/2, z'
  10  '-x+1/2, -y+1/2, -z'
  11  '-x+1/2, -y+1/2, z'
  12  'x+1/2, y+1/2, -z'
  13  'x+1/2, -y+1/2, -z'
  14  '-x+1/2, y+1/2, z'
  15  '-x+1/2, y+1/2, -z'
  16  'x+1/2, -y+1/2, z'
loop_
 _atom_site_type_symbol
 _atom_site_label
 _atom_site_symmetry_multiplicity
 _atom_site_fract_x
 _atom_site_fract_y
 _atom_site_fract_z
 _atom_site_occupancy
  Hf  Hf0  16  0.24991466  0.45001879  0.24444715  1
  Hf  Hf1  16  0.24999927  0.34999988  0.24999953  1
  Hf  Hf2  8  0.00000000  0.20000830  0.25567949  1
  Hf  Hf3  8  0.00000000  0.40000995  0.24431326  1
  Hf  Hf4  8  0.25000000  0.25000000  0.25552791  1
  Hf  Hf5  4  0.00000000  0.00000000  0.24435677  1
  U  U6  4  0.00000000  0.09986197  0.00000000  1
  U  U7  4  0.00000000  0.29987265  0.50000000  1
  U  U8  2  0.00000000  0.50000000  0.00000000  1
  Pb  Pb9  8  0.00000000  0.09987160  0.33125228  1
  Pb  Pb10  8  0.00000000  0.29987121  0.16874533  1
  Pb  Pb11  4  0.00000000  0.03316126  0.50000000  1
  Pb  Pb12  4  0.00000000  0.03319897  0.00000000  1
  Pb  Pb13  4  0.00000000  0.16639570  0.00000000  1
  Pb  Pb14  4  0.00000000  0.16731020  0.50000000  1
  Pb  Pb15  4  0.00000000  0.23315445  0.00000000  1
  Pb  Pb16  4  0.00000000  0.23322785  0.50000000  1
  Pb  Pb17  4  0.00000000  0.36639670  0.50000000  1
  Pb  Pb18  4  0.00000000  0.36731020  0.00000000  1
  Pb  Pb19  4  0.00000000  0.43314108  0.50000000  1
  Pb  Pb20  4  0.00000000  0.43321615  0.00000000  1
  Pb  Pb21  4  0.00000000  0.50000000  0.33148852  1
