# generated using pymatgen
data_U(TiGe)6
_symmetry_space_group_name_H-M   Cmmm
_cell_length_a   5.54375208
_cell_length_b   47.99298930
_cell_length_c   8.96460408
_cell_angle_alpha   90.00000000
_cell_angle_beta   90.00000000
_cell_angle_gamma   90.00000000
_symmetry_Int_Tables_number   65
_chemical_formula_structural   U(TiGe)6
_chemical_formula_sum   'U10 Ti60 Ge60'
_cell_volume   2385.13362695
_cell_formula_units_Z   10
loop_
 _symmetry_equiv_pos_site_id
 _symmetry_equiv_pos_as_xyz
  1  'x, y, z'
  2  '-x, -y, -z'
  3  '-x, -y, z'
  4  'x, y, -z'
  5  'x, -y, -z'
  6  '-x, y, z'
  7  '-x, y, -z'
  8  'x, -y, z'
  9  'x+1/2, y+1/2, z'
  10  '-x+1/2, -y+1/2, -z'
  11  '-x+1/2, -y+1/2, z'
  12  'x+1/2, y+1/2, -z'
  13  'x+1/2, -y+1/2, -z'
  14  '-x+1/2, y+1/2, z'
  15  '-x+1/2, y+1/2, -z'
  16  'x+1/2, -y+1/2, z'
loop_
 _atom_site_type_symbol
 _atom_site_label
 _atom_site_symmetry_multiplicity
 _atom_site_fract_x
 _atom_site_fract_y
 _atom_site_fract_z
 _atom_site_occupancy
  U  U0  4  0.00000000  0.09931685  0.00000000  1
  U  U1  4  0.00000000  0.29935717  0.50000000  1
  U  U2  2  0.00000000  0.50000000  0.00000000  1
  Ti  Ti3  16  0.24988102  0.05000250  0.25345061  1
  Ti  Ti4  16  0.24999322  0.35000304  0.25001066  1
  Ti  Ti5  8  0.00000000  0.20004133  0.24209182  1
  Ti  Ti6  8  0.00000000  0.40005161  0.25793959  1
  Ti  Ti7  8  0.25000000  0.25000000  0.24634480  1
  Ti  Ti8  4  0.00000000  0.00000000  0.25302508  1
  Ge  Ge9  8  0.00000000  0.10007009  0.31265968  1
  Ge  Ge10  8  0.00000000  0.30006784  0.18731889  1
  Ge  Ge11  4  0.00000000  0.03321345  0.50000000  1
  Ge  Ge12  4  0.00000000  0.03331991  0.00000000  1
  Ge  Ge13  4  0.00000000  0.16350478  0.00000000  1
  Ge  Ge14  4  0.00000000  0.16976480  0.50000000  1
  Ge  Ge15  4  0.00000000  0.23311860  0.50000000  1
  Ge  Ge16  4  0.00000000  0.23339062  0.00000000  1
  Ge  Ge17  4  0.00000000  0.36351721  0.50000000  1
  Ge  Ge18  4  0.00000000  0.36977423  0.00000000  1
  Ge  Ge19  4  0.00000000  0.43313648  0.00000000  1
  Ge  Ge20  4  0.00000000  0.43338929  0.50000000  1
  Ge  Ge21  4  0.00000000  0.50000000  0.31177941  1
