# generated using pymatgen
data_U(NbGe)6
_symmetry_space_group_name_H-M   Cmcm
_cell_length_a   8.78979188
_cell_length_b   38.94671056
_cell_length_c   5.61077076
_cell_angle_alpha   90.00000000
_cell_angle_beta   90.00000000
_cell_angle_gamma   90.00000000
_symmetry_Int_Tables_number   63
_chemical_formula_structural   U(NbGe)6
_chemical_formula_sum   'U8 Nb48 Ge48'
_cell_volume   1920.75467955
_cell_formula_units_Z   8
loop_
 _symmetry_equiv_pos_site_id
 _symmetry_equiv_pos_as_xyz
  1  'x, y, z'
  2  '-x, -y, -z'
  3  '-x, -y, z+1/2'
  4  'x, y, -z+1/2'
  5  'x, -y, -z'
  6  '-x, y, z'
  7  '-x, y, -z+1/2'
  8  'x, -y, z+1/2'
  9  'x+1/2, y+1/2, z'
  10  '-x+1/2, -y+1/2, -z'
  11  '-x+1/2, -y+1/2, z+1/2'
  12  'x+1/2, y+1/2, -z+1/2'
  13  'x+1/2, -y+1/2, -z'
  14  '-x+1/2, y+1/2, z'
  15  '-x+1/2, y+1/2, -z+1/2'
  16  'x+1/2, -y+1/2, z+1/2'
loop_
 _atom_site_type_symbol
 _atom_site_label
 _atom_site_symmetry_multiplicity
 _atom_site_fract_x
 _atom_site_fract_y
 _atom_site_fract_z
 _atom_site_occupancy
  U  U0  4  0.00000000  0.31253399  0.25000000  1
  U  U1  4  0.00000000  0.43668792  0.75000000  1
  Nb  Nb2  16  0.24633904  0.87495363  0.50008999  1
  Nb  Nb3  8  0.24643289  0.18767301  0.25000000  1
  Nb  Nb4  8  0.24816777  0.00000000  0.00000000  1
  Nb  Nb5  8  0.24909040  0.06250879  0.75000000  1
  Nb  Nb6  8  0.25000000  0.25000000  0.00000000  1
  Ge  Ge7  8  0.17590087  0.18759440  0.75000000  1
  Ge  Ge8  8  0.17798594  0.06186027  0.25000000  1
  Ge  Ge9  4  0.00000000  0.02113482  0.75000000  1
  Ge  Ge10  4  0.00000000  0.10348242  0.75000000  1
  Ge  Ge11  4  0.00000000  0.14630782  0.25000000  1
  Ge  Ge12  4  0.00000000  0.23121214  0.25000000  1
  Ge  Ge13  4  0.00000000  0.27307734  0.75000000  1
  Ge  Ge14  4  0.00000000  0.35399299  0.75000000  1
  Ge  Ge15  4  0.00000000  0.39530398  0.25000000  1
  Ge  Ge16  4  0.00000000  0.47892932  0.25000000  1
