# generated using pymatgen
data_U(TaSi)6
_symmetry_space_group_name_H-M   Immm
_cell_length_a   5.71216350
_cell_length_b   8.25977734
_cell_length_c   29.09390203
_cell_angle_alpha   90.00000000
_cell_angle_beta   90.00000000
_cell_angle_gamma   90.00000000
_symmetry_Int_Tables_number   71
_chemical_formula_structural   U(TaSi)6
_chemical_formula_sum   'U6 Ta36 Si36'
_cell_volume   1372.68516993
_cell_formula_units_Z   6
loop_
 _symmetry_equiv_pos_site_id
 _symmetry_equiv_pos_as_xyz
  1  'x, y, z'
  2  '-x, -y, -z'
  3  '-x, -y, z'
  4  'x, y, -z'
  5  'x, -y, -z'
  6  '-x, y, z'
  7  '-x, y, -z'
  8  'x, -y, z'
  9  'x+1/2, y+1/2, z+1/2'
  10  '-x+1/2, -y+1/2, -z+1/2'
  11  '-x+1/2, -y+1/2, z+1/2'
  12  'x+1/2, y+1/2, -z+1/2'
  13  'x+1/2, -y+1/2, -z+1/2'
  14  '-x+1/2, y+1/2, z+1/2'
  15  '-x+1/2, y+1/2, -z+1/2'
  16  'x+1/2, -y+1/2, z+1/2'
loop_
 _atom_site_type_symbol
 _atom_site_label
 _atom_site_symmetry_multiplicity
 _atom_site_fract_x
 _atom_site_fract_y
 _atom_site_fract_z
 _atom_site_occupancy
  U  U0  4  0.00000000  0.00000000  0.33553756  1
  U  U1  2  0.00000000  0.50000000  0.00000000  1
  Ta  Ta2  16  0.24996895  0.24291586  0.41654076  1
  Ta  Ta3  8  0.00000000  0.22100358  0.16661959  1
  Ta  Ta4  8  0.25000000  0.25000000  0.25000000  1
  Ta  Ta5  4  0.00000000  0.26277220  0.50000000  1
  Si  Si6  8  0.00000000  0.34517263  0.33362943  1
  Si  Si7  4  0.00000000  0.00000000  0.10317725  1
  Si  Si8  4  0.00000000  0.00000000  0.22976853  1
  Si  Si9  4  0.00000000  0.00000000  0.44873071  1
  Si  Si10  4  0.00000000  0.15556875  0.00000000  1
  Si  Si11  4  0.00000000  0.50000000  0.11827402  1
  Si  Si12  4  0.00000000  0.50000000  0.21255967  1
  Si  Si13  4  0.00000000  0.50000000  0.43991525  1
