# generated using pymatgen
data_Zr6USi6
_symmetry_space_group_name_H-M   Cmmm
_cell_length_a   5.36300000
_cell_length_b   46.56000000
_cell_length_c   8.87300000
_cell_angle_alpha   90.00000000
_cell_angle_beta   90.00000000
_cell_angle_gamma   90.00000000
_symmetry_Int_Tables_number   65
_chemical_formula_structural   Zr6USi6
_chemical_formula_sum   'Zr60 U10 Si60'
_cell_volume   2215.59945744
_cell_formula_units_Z   10
loop_
 _symmetry_equiv_pos_site_id
 _symmetry_equiv_pos_as_xyz
  1  'x, y, z'
  2  '-x, -y, -z'
  3  '-x, -y, z'
  4  'x, y, -z'
  5  'x, -y, -z'
  6  '-x, y, z'
  7  '-x, y, -z'
  8  'x, -y, z'
  9  'x+1/2, y+1/2, z'
  10  '-x+1/2, -y+1/2, -z'
  11  '-x+1/2, -y+1/2, z'
  12  'x+1/2, y+1/2, -z'
  13  'x+1/2, -y+1/2, -z'
  14  '-x+1/2, y+1/2, z'
  15  '-x+1/2, y+1/2, -z'
  16  'x+1/2, -y+1/2, z'
loop_
 _atom_site_type_symbol
 _atom_site_label
 _atom_site_symmetry_multiplicity
 _atom_site_fract_x
 _atom_site_fract_y
 _atom_site_fract_z
 _atom_site_occupancy
  Zr  Zr0  16  0.25000000  0.05000000  0.25000000  1.0
  Zr  Zr1  16  0.25000000  0.15000000  0.25000000  1.0
  Zr  Zr2  8  0.00000000  0.10000000  0.25000000  1.0
  Zr  Zr3  8  0.00000000  0.30000000  0.25000000  1.0
  Zr  Zr4  8  0.25000000  0.25000000  0.25000000  1.0
  Zr  Zr5  4  0.00000000  0.50000000  0.25000000  1.0
  U  U6  4  0.00000000  0.20000000  0.00000000  1.0
  U  U7  4  0.00000000  0.40000000  0.50000000  1.0
  U  U8  2  0.00000000  0.00000000  0.50000000  1.0
  Si  Si9  8  0.00000000  0.20000000  0.33300000  1.0
  Si  Si10  8  0.00000000  0.40000000  0.16700000  1.0
  Si  Si11  4  0.00000000  0.00000000  0.16700000  1.0
  Si  Si12  4  0.00000000  0.06700000  0.00000000  1.0
  Si  Si13  4  0.00000000  0.06700000  0.50000000  1.0
  Si  Si14  4  0.00000000  0.13300000  0.00000000  1.0
  Si  Si15  4  0.00000000  0.13300000  0.50000000  1.0
  Si  Si16  4  0.00000000  0.26700000  0.00000000  1.0
  Si  Si17  4  0.00000000  0.26700000  0.50000000  1.0
  Si  Si18  4  0.00000000  0.33300000  0.00000000  1.0
  Si  Si19  4  0.00000000  0.33300000  0.50000000  1.0
  Si  Si20  4  0.00000000  0.46700000  0.00000000  1.0
  Si  Si21  4  0.00000000  0.46700000  0.50000000  1.0
