# generated using pymatgen
data_U(CoGe)6
_symmetry_space_group_name_H-M   Cmcm
_cell_length_a   8.87370000
_cell_length_b   37.18080000
_cell_length_c   5.37800000
_cell_angle_alpha   90.00000000
_cell_angle_beta   90.00000000
_cell_angle_gamma   90.00000000
_symmetry_Int_Tables_number   63
_chemical_formula_structural   U(CoGe)6
_chemical_formula_sum   'U8 Co48 Ge48'
_cell_volume   1774.37034295
_cell_formula_units_Z   8
loop_
 _symmetry_equiv_pos_site_id
 _symmetry_equiv_pos_as_xyz
  1  'x, y, z'
  2  '-x, -y, -z'
  3  '-x, -y, z+1/2'
  4  'x, y, -z+1/2'
  5  'x, -y, -z'
  6  '-x, y, z'
  7  '-x, y, -z+1/2'
  8  'x, -y, z+1/2'
  9  'x+1/2, y+1/2, z'
  10  '-x+1/2, -y+1/2, -z'
  11  '-x+1/2, -y+1/2, z+1/2'
  12  'x+1/2, y+1/2, -z+1/2'
  13  'x+1/2, -y+1/2, -z'
  14  '-x+1/2, y+1/2, z'
  15  '-x+1/2, y+1/2, -z+1/2'
  16  'x+1/2, -y+1/2, z+1/2'
loop_
 _atom_site_type_symbol
 _atom_site_label
 _atom_site_symmetry_multiplicity
 _atom_site_fract_x
 _atom_site_fract_y
 _atom_site_fract_z
 _atom_site_occupancy
  U  U0  4  0.00000000  0.06800000  0.25000000  1.0
  U  U1  4  0.00000000  0.19140000  0.75000000  1.0
  Co  Co2  16  0.24970000  0.12540000  0.01290000  1.0
  Co  Co3  8  0.24370000  0.00000000  0.00000000  1.0
  Co  Co4  8  0.24730000  0.18990000  0.25000000  1.0
  Co  Co5  8  0.24810000  0.06140000  0.75000000  1.0
  Co  Co6  8  0.25000000  0.25000000  0.00000000  1.0
  Ge  Ge7  8  0.15860000  0.31240000  0.25000000  1.0
  Ge  Ge8  8  0.17210000  0.44220000  0.75000000  1.0
  Ge  Ge9  4  0.00000000  0.02300000  0.75000000  1.0
  Ge  Ge10  4  0.00000000  0.10280000  0.75000000  1.0
  Ge  Ge11  4  0.00000000  0.14530000  0.25000000  1.0
  Ge  Ge12  4  0.00000000  0.22820000  0.25000000  1.0
  Ge  Ge13  4  0.00000000  0.27540000  0.75000000  1.0
  Ge  Ge14  4  0.00000000  0.35440000  0.75000000  1.0
  Ge  Ge15  4  0.00000000  0.39830000  0.25000000  1.0
  Ge  Ge16  4  0.00000000  0.47770000  0.25000000  1.0
