# generated using pymatgen
data_U(CrSi)6
_symmetry_space_group_name_H-M   P6/mmm
_cell_length_a   5.01600000
_cell_length_b   5.01600000
_cell_length_c   8.03800000
_cell_angle_alpha   90.00000000
_cell_angle_beta   90.00000000
_cell_angle_gamma   120.00000000
_symmetry_Int_Tables_number   191
_chemical_formula_structural   U(CrSi)6
_chemical_formula_sum   'U1 Cr6 Si6'
_cell_volume   175.14336489
_cell_formula_units_Z   1
loop_
 _symmetry_equiv_pos_site_id
 _symmetry_equiv_pos_as_xyz
  1  'x, y, z'
  2  '-x, -y, -z'
  3  'x-y, x, z'
  4  '-x+y, -x, -z'
  5  '-y, x-y, z'
  6  'y, -x+y, -z'
  7  '-x, -y, z'
  8  'x, y, -z'
  9  '-x+y, -x, z'
  10  'x-y, x, -z'
  11  'y, -x+y, z'
  12  '-y, x-y, -z'
  13  '-y, -x, -z'
  14  'y, x, z'
  15  '-x, -x+y, -z'
  16  'x, x-y, z'
  17  '-x+y, y, -z'
  18  'x-y, -y, z'
  19  'y, x, -z'
  20  '-y, -x, z'
  21  'x, x-y, -z'
  22  '-x, -x+y, z'
  23  'x-y, -y, -z'
  24  '-x+y, y, z'
loop_
 _atom_site_type_symbol
 _atom_site_label
 _atom_site_symmetry_multiplicity
 _atom_site_fract_x
 _atom_site_fract_y
 _atom_site_fract_z
 _atom_site_occupancy
  U  U0  1  0.00000000  0.00000000  0.00000000  1.0
  Cr  Cr1  6  0.00000000  0.50000000  0.24890000  1.0
  Si  Si2  2  0.00000000  0.00000000  0.34500000  1.0
  Si  Si3  2  0.33333333  0.66666667  0.00000000  1.0
  Si  Si4  2  0.33333333  0.66666667  0.50000000  1.0
