# generated using pymatgen
data_U(ZnGe)6
_symmetry_space_group_name_H-M   Cmcm
_cell_length_a   8.88900000
_cell_length_b   74.40000000
_cell_length_c   5.39400000
_cell_angle_alpha   90.00000000
_cell_angle_beta   90.00000000
_cell_angle_gamma   90.00000000
_symmetry_Int_Tables_number   63
_chemical_formula_structural   U(ZnGe)6
_chemical_formula_sum   'U16 Zn96 Ge96'
_cell_volume   3567.27659040
_cell_formula_units_Z   16
loop_
 _symmetry_equiv_pos_site_id
 _symmetry_equiv_pos_as_xyz
  1  'x, y, z'
  2  '-x, -y, -z'
  3  '-x, -y, z+1/2'
  4  'x, y, -z+1/2'
  5  'x, -y, -z'
  6  '-x, y, z'
  7  '-x, y, -z+1/2'
  8  'x, -y, z+1/2'
  9  'x+1/2, y+1/2, z'
  10  '-x+1/2, -y+1/2, -z'
  11  '-x+1/2, -y+1/2, z+1/2'
  12  'x+1/2, y+1/2, -z+1/2'
  13  'x+1/2, -y+1/2, -z'
  14  '-x+1/2, y+1/2, z'
  15  '-x+1/2, y+1/2, -z+1/2'
  16  'x+1/2, -y+1/2, z+1/2'
loop_
 _atom_site_type_symbol
 _atom_site_label
 _atom_site_symmetry_multiplicity
 _atom_site_fract_x
 _atom_site_fract_y
 _atom_site_fract_z
 _atom_site_occupancy
  U  U0  4  0.00000000  0.03130000  0.75000000  1.0
  U  U1  4  0.00000000  0.28120000  0.75000000  1.0
  U  U2  4  0.00000000  0.34380000  0.25000000  1.0
  U  U3  4  0.00000000  0.40620000  0.75000000  1.0
  Zn  Zn4  16  0.23200000  0.06250000  0.00000000  1.0
  Zn  Zn5  16  0.23200000  0.12500000  0.00000000  1.0
  Zn  Zn6  16  0.23200000  0.18750000  0.00000000  1.0
  Zn  Zn7  8  0.23200000  0.00000000  0.00000000  1.0
  Zn  Zn8  8  0.23200000  0.03130000  0.25000000  1.0
  Zn  Zn9  8  0.23200000  0.09380000  0.75000000  1.0
  Zn  Zn10  8  0.23200000  0.15620000  0.25000000  1.0
  Zn  Zn11  8  0.23200000  0.21880000  0.75000000  1.0
  Zn  Zn12  8  0.25000000  0.25000000  0.00000000  1.0
  Ge  Ge13  8  0.16200000  0.09380000  0.25000000  1.0
  Ge  Ge14  8  0.16200000  0.15620000  0.75000000  1.0
  Ge  Ge15  8  0.16200000  0.21880000  0.25000000  1.0
  Ge  Ge16  8  0.16200000  0.46870000  0.25000000  1.0
  Ge  Ge17  4  0.00000000  0.01040000  0.25000000  1.0
  Ge  Ge18  4  0.00000000  0.05210000  0.25000000  1.0
  Ge  Ge19  4  0.00000000  0.07290000  0.75000000  1.0
  Ge  Ge20  4  0.00000000  0.11460000  0.75000000  1.0
  Ge  Ge21  4  0.00000000  0.13540000  0.25000000  1.0
  Ge  Ge22  4  0.00000000  0.17710000  0.25000000  1.0
  Ge  Ge23  4  0.00000000  0.19790000  0.75000000  1.0
  Ge  Ge24  4  0.00000000  0.23960000  0.75000000  1.0
  Ge  Ge25  4  0.00000000  0.26040000  0.25000000  1.0
  Ge  Ge26  4  0.00000000  0.30210000  0.25000000  1.0
  Ge  Ge27  4  0.00000000  0.32290000  0.75000000  1.0
  Ge  Ge28  4  0.00000000  0.36460000  0.75000000  1.0
  Ge  Ge29  4  0.00000000  0.38540000  0.25000000  1.0
  Ge  Ge30  4  0.00000000  0.42710000  0.25000000  1.0
  Ge  Ge31  4  0.00000000  0.44790000  0.75000000  1.0
  Ge  Ge32  4  0.00000000  0.48960000  0.75000000  1.0
